# File generated by Flopy version 3.8.2 on 01/14/2025 at 10:24:35.
BEGIN options
  LIST  gwf.list
  SAVE_FLOWS
  NEWTON  UNDER_RELAXATION
END options

BEGIN packages
  IC6  gwf.ic  ic
  dis6  gwf.dis  dis
  npf6  gwf.npf  npf
  sto6  gwf.sto  sto
  rch6  gwf.rcha  rcha_0
  oc6  gwf.oc  oc
  wel6  gwf.wel  wel_0
  CHD6  gwf_perimeter.chd  chd
  DRN6  gwf.drn  drn
  GHB6  gwf.ghb  ghb
  BUY6  gwf.buy  buy
END packages

