# File generated by Flopy version 3.8.2 on 12/23/2024 at 12:48:46.
BEGIN options
  auxiliary  salinity
END options

BEGIN dimensions
  MAXBOUND  742
END dimensions

BEGIN period  1
    OPEN/CLOSE  'external/ghb.dat'
END period  1

