# File generated by Flopy version 3.8.2 on 12/23/2024 at 12:48:45.
BEGIN options
  LENGTH_UNITS  feet
  XORIGIN  2.43997974E+06
  YORIGIN  3.10542730E+05
  ANGROT      18.00000000
END options

BEGIN dimensions
  NLAY  16
  NROW  48
  NCOL  58
END dimensions

BEGIN griddata
  delr
    INTERNAL  FACTOR  1.0
       500.00000000     500.00000000     500.00000000     500.00000000     500.00000000     500.00000000     500.00000000     500.00000000     500.00000000     500.00000000     500.00000000     500.00000000     500.00000000     500.00000000     500.00000000     500.00000000     500.00000000     500.00000000     500.00000000     500.00000000     500.00000000     500.00000000     500.00000000     500.00000000     500.00000000     500.00000000     500.00000000     500.00000000     500.00000000     500.00000000     500.00000000     500.00000000     500.00000000     500.00000000     500.00000000     500.00000000     500.00000000     500.00000000     500.00000000     500.00000000     500.00000000     500.00000000     500.00000000     500.00000000     500.00000000     500.00000000     500.00000000     500.00000000     500.00000000     500.00000000     500.00000000     500.00000000     500.00000000     500.00000000     500.00000000     500.00000000     500.00000000     500.00000000
  delc
    INTERNAL  FACTOR  1.0
       500.00000000     500.00000000     500.00000000     500.00000000     500.00000000     500.00000000     500.00000000     500.00000000     500.00000000     500.00000000     500.00000000     500.00000000     500.00000000     500.00000000     500.00000000     500.00000000     500.00000000     500.00000000     500.00000000     500.00000000     500.00000000     500.00000000     500.00000000     500.00000000     500.00000000     500.00000000     500.00000000     500.00000000     500.00000000     500.00000000     500.00000000     500.00000000     500.00000000     500.00000000     500.00000000     500.00000000     500.00000000     500.00000000     500.00000000     500.00000000     500.00000000     500.00000000     500.00000000     500.00000000     500.00000000     500.00000000     500.00000000     500.00000000
  top
    OPEN/CLOSE  '.\external\top.dat'  FACTOR  1.0
  botm  LAYERED
    OPEN/CLOSE  '.\external\bot_00.dat'  FACTOR  1.0
    OPEN/CLOSE  '.\external\bot_01.dat'  FACTOR  1.0
    OPEN/CLOSE  '.\external\bot_02.dat'  FACTOR  1.0
    OPEN/CLOSE  '.\external\bot_03.dat'  FACTOR  1.0
    OPEN/CLOSE  '.\external\bot_04.dat'  FACTOR  1.0
    OPEN/CLOSE  '.\external\bot_05.dat'  FACTOR  1.0
    OPEN/CLOSE  '.\external\bot_06.dat'  FACTOR  1.0
    OPEN/CLOSE  '.\external\bot_07.dat'  FACTOR  1.0
    OPEN/CLOSE  '.\external\bot_08.dat'  FACTOR  1.0
    OPEN/CLOSE  '.\external\bot_09.dat'  FACTOR  1.0
    OPEN/CLOSE  '.\external\bot_10.dat'  FACTOR  1.0
    OPEN/CLOSE  '.\external\bot_11.dat'  FACTOR  1.0
    OPEN/CLOSE  '.\external\bot_12.dat'  FACTOR  1.0
    OPEN/CLOSE  '.\external\bot_13.dat'  FACTOR  1.0
    OPEN/CLOSE  '.\external\bot_14.dat'  FACTOR  1.0
    OPEN/CLOSE  '.\external\bot_15.dat'  FACTOR  1.0
  idomain  LAYERED
    OPEN/CLOSE  '.\external\idom_00.dat'  FACTOR  1
    OPEN/CLOSE  '.\external\idom_01.dat'  FACTOR  1
    OPEN/CLOSE  '.\external\idom_02.dat'  FACTOR  1
    OPEN/CLOSE  '.\external\idom_03.dat'  FACTOR  1
    OPEN/CLOSE  '.\external\idom_04.dat'  FACTOR  1
    OPEN/CLOSE  '.\external\idom_05.dat'  FACTOR  1
    OPEN/CLOSE  '.\external\idom_06.dat'  FACTOR  1
    OPEN/CLOSE  '.\external\idom_07.dat'  FACTOR  1
    OPEN/CLOSE  '.\external\idom_08.dat'  FACTOR  1
    OPEN/CLOSE  '.\external\idom_09.dat'  FACTOR  1
    OPEN/CLOSE  '.\external\idom_10.dat'  FACTOR  1
    OPEN/CLOSE  '.\external\idom_11.dat'  FACTOR  1
    OPEN/CLOSE  '.\external\idom_12.dat'  FACTOR  1
    OPEN/CLOSE  '.\external\idom_13.dat'  FACTOR  1
    OPEN/CLOSE  '.\external\idom_14.dat'  FACTOR  1
    OPEN/CLOSE  '.\external\idom_15.dat'  FACTOR  1
END griddata

