# File generated by Flopy version 3.8.2 on 01/14/2025 at 10:24:35.
BEGIN options
  DENSEREF    1000.00000000
END options

BEGIN dimensions
  NRHOSPECIES  1
END dimensions

BEGIN packagedata
  1       0.71428571       0.00000000  gwt  salinity
END packagedata

