# File generated by Flopy version 3.8.2 on 12/23/2024 at 12:48:46.
BEGIN options
  DENSEREF    1000.00000000
END options

BEGIN dimensions
  NRHOSPECIES  1
END dimensions

BEGIN packagedata
  1       0.71428571       0.00000000  gwt  salinity
END packagedata

