# File generated by Flopy version 3.8.2 on 12/23/2024 at 12:48:46.
BEGIN options
  BUDGET  FILEOUT  gwf.cbc
  HEAD  FILEOUT  gwf.hds
END options

BEGIN period  1
  SAVE  head  last
  SAVE  budget  last
END period  1

