# File generated by Flopy version 3.8.2 on 12/23/2024 at 12:48:45.
BEGIN options
  LIST  gwf.list
  SAVE_FLOWS
  NEWTON  UNDER_RELAXATION
END options

BEGIN packages
  CHD6  gwf.chd  chd
  wel6  gwf.wel  wel_0
  oc6  gwf.oc  oc
  rch6  gwf.rcha  rcha_0
  sto6  gwf.sto  sto
  npf6  gwf.npf  npf
  dis6  gwf.dis  dis
  IC6  gwf.ic  ic
  DRN6  gwf.drn  drn
  GHB6  gwf.ghb  ghb
  BUY6  gwf.buy  buy
END packages

