# File generated by Flopy version 3.8.2 on 01/14/2025 at 10:24:35.
BEGIN options
  auxiliary  salinity
END options

BEGIN dimensions
  MAXBOUND  742
END dimensions

BEGIN period  1
    OPEN/CLOSE  'external/ghb.dat'
END period  1

