# File generated by Flopy version 3.8.2 on 01/14/2025 at 10:24:35.
BEGIN options
  auxiliary  salinity
  BOUNDNAMES
END options

BEGIN dimensions
  MAXBOUND  2352
END dimensions

BEGIN period  1
    OPEN/CLOSE  'external/chd_perimeter.dat'
END period  1

