# File generated by Flopy version 3.8.2 on 01/14/2025 at 10:24:35.
BEGIN options
  SCHEME  upstream
END options

