# File generated by Flopy version 3.8.2 on 12/23/2024 at 12:48:46.
BEGIN options
  SCHEME  upstream
END options

