# File generated by Flopy version 3.8.2 on 01/14/2025 at 10:24:35.
BEGIN options
END options

BEGIN sources
  ghb  aux  salinity
  drn  aux  salinity
  chd  aux  salinity
END sources

