# File generated by Flopy version 3.8.2 on 01/14/2025 at 10:24:35.
BEGIN options
END options

BEGIN timing
  TDIS6  modflowsim.tdis
END timing

BEGIN models
  gwf6  gwf.nam  gwf
  gwt6  gwt.nam  gwt
END models

BEGIN exchanges
  GWF6-GWT6  gwf_gwt.gwfgwt  gwf  gwt
END exchanges

BEGIN solutiongroup  1
  ims6  gwf.ims  gwf
  ims6  gwt.ims  gwt
END solutiongroup  1

