# File generated by Flopy version 3.8.2 on 01/14/2025 at 10:24:35.
BEGIN options
  TIME_UNITS  days
END options

BEGIN dimensions
  NPER  365
END dimensions

BEGIN perioddata
       1.00000000  1       1.00000000
       1.00000000  1       1.00000000
       1.00000000  1       1.00000000
       1.00000000  1       1.00000000
       1.00000000  1       1.00000000
       1.00000000  1       1.00000000
       1.00000000  1       1.00000000
       1.00000000  1       1.00000000
       1.00000000  1       1.00000000
       1.00000000  1       1.00000000
       1.00000000  1       1.00000000
       1.00000000  1       1.00000000
       1.00000000  1       1.00000000
       1.00000000  1       1.00000000
       1.00000000  1       1.00000000
       1.00000000  1       1.00000000
       1.00000000  1       1.00000000
       1.00000000  1       1.00000000
       1.00000000  1       1.00000000
       1.00000000  1       1.00000000
       1.00000000  1       1.00000000
       1.00000000  1       1.00000000
       1.00000000  1       1.00000000
       1.00000000  1       1.00000000
       1.00000000  1       1.00000000
       1.00000000  1       1.00000000
       1.00000000  1       1.00000000
       1.00000000  1       1.00000000
       1.00000000  1       1.00000000
       1.00000000  1       1.00000000
       1.00000000  1       1.00000000
       1.00000000  1       1.00000000
       1.00000000  1       1.00000000
       1.00000000  1       1.00000000
       1.00000000  1       1.00000000
       1.00000000  1       1.00000000
       1.00000000  1       1.00000000
       1.00000000  1       1.00000000
       1.00000000  1       1.00000000
       1.00000000  1       1.00000000
       1.00000000  1       1.00000000
       1.00000000  1       1.00000000
       1.00000000  1       1.00000000
       1.00000000  1       1.00000000
       1.00000000  1       1.00000000
       1.00000000  1       1.00000000
       1.00000000  1       1.00000000
       1.00000000  1       1.00000000
       1.00000000  1       1.00000000
       1.00000000  1       1.00000000
       1.00000000  1       1.00000000
       1.00000000  1       1.00000000
       1.00000000  1       1.00000000
       1.00000000  1       1.00000000
       1.00000000  1       1.00000000
       1.00000000  1       1.00000000
       1.00000000  1       1.00000000
       1.00000000  1       1.00000000
       1.00000000  1       1.00000000
       1.00000000  1       1.00000000
       1.00000000  1       1.00000000
       1.00000000  1       1.00000000
       1.00000000  1       1.00000000
       1.00000000  1       1.00000000
       1.00000000  1       1.00000000
       1.00000000  1       1.00000000
       1.00000000  1       1.00000000
       1.00000000  1       1.00000000
       1.00000000  1       1.00000000
       1.00000000  1       1.00000000
       1.00000000  1       1.00000000
       1.00000000  1       1.00000000
       1.00000000  1       1.00000000
       1.00000000  1       1.00000000
       1.00000000  1       1.00000000
       1.00000000  1       1.00000000
       1.00000000  1       1.00000000
       1.00000000  1       1.00000000
       1.00000000  1       1.00000000
       1.00000000  1       1.00000000
       1.00000000  1       1.00000000
       1.00000000  1       1.00000000
       1.00000000  1       1.00000000
       1.00000000  1       1.00000000
       1.00000000  1       1.00000000
       1.00000000  1       1.00000000
       1.00000000  1       1.00000000
       1.00000000  1       1.00000000
       1.00000000  1       1.00000000
       1.00000000  1       1.00000000
       1.00000000  1       1.00000000
       1.00000000  1       1.00000000
       1.00000000  1       1.00000000
       1.00000000  1       1.00000000
       1.00000000  1       1.00000000
       1.00000000  1       1.00000000
       1.00000000  1       1.00000000
       1.00000000  1       1.00000000
       1.00000000  1       1.00000000
       1.00000000  1       1.00000000
       1.00000000  1       1.00000000
       1.00000000  1       1.00000000
       1.00000000  1       1.00000000
       1.00000000  1       1.00000000
       1.00000000  1       1.00000000
       1.00000000  1       1.00000000
       1.00000000  1       1.00000000
       1.00000000  1       1.00000000
       1.00000000  1       1.00000000
       1.00000000  1       1.00000000
       1.00000000  1       1.00000000
       1.00000000  1       1.00000000
       1.00000000  1       1.00000000
       1.00000000  1       1.00000000
       1.00000000  1       1.00000000
       1.00000000  1       1.00000000
       1.00000000  1       1.00000000
       1.00000000  1       1.00000000
       1.00000000  1       1.00000000
       1.00000000  1       1.00000000
       1.00000000  1       1.00000000
       1.00000000  1       1.00000000
       1.00000000  1       1.00000000
       1.00000000  1       1.00000000
       1.00000000  1       1.00000000
       1.00000000  1       1.00000000
       1.00000000  1       1.00000000
       1.00000000  1       1.00000000
       1.00000000  1       1.00000000
       1.00000000  1       1.00000000
       1.00000000  1       1.00000000
       1.00000000  1       1.00000000
       1.00000000  1       1.00000000
       1.00000000  1       1.00000000
       1.00000000  1       1.00000000
       1.00000000  1       1.00000000
       1.00000000  1       1.00000000
       1.00000000  1       1.00000000
       1.00000000  1       1.00000000
       1.00000000  1       1.00000000
       1.00000000  1       1.00000000
       1.00000000  1       1.00000000
       1.00000000  1       1.00000000
       1.00000000  1       1.00000000
       1.00000000  1       1.00000000
       1.00000000  1       1.00000000
       1.00000000  1       1.00000000
       1.00000000  1       1.00000000
       1.00000000  1       1.00000000
       1.00000000  1       1.00000000
       1.00000000  1       1.00000000
       1.00000000  1       1.00000000
       1.00000000  1       1.00000000
       1.00000000  1       1.00000000
       1.00000000  1       1.00000000
       1.00000000  1       1.00000000
       1.00000000  1       1.00000000
       1.00000000  1       1.00000000
       1.00000000  1       1.00000000
       1.00000000  1       1.00000000
       1.00000000  1       1.00000000
       1.00000000  1       1.00000000
       1.00000000  1       1.00000000
       1.00000000  1       1.00000000
       1.00000000  1       1.00000000
       1.00000000  1       1.00000000
       1.00000000  1       1.00000000
       1.00000000  1       1.00000000
       1.00000000  1       1.00000000
       1.00000000  1       1.00000000
       1.00000000  1       1.00000000
       1.00000000  1       1.00000000
       1.00000000  1       1.00000000
       1.00000000  1       1.00000000
       1.00000000  1       1.00000000
       1.00000000  1       1.00000000
       1.00000000  1       1.00000000
       1.00000000  1       1.00000000
       1.00000000  1       1.00000000
       1.00000000  1       1.00000000
       1.00000000  1       1.00000000
       1.00000000  1       1.00000000
       1.00000000  1       1.00000000
       1.00000000  1       1.00000000
       1.00000000  1       1.00000000
       1.00000000  1       1.00000000
       1.00000000  1       1.00000000
       1.00000000  1       1.00000000
       1.00000000  1       1.00000000
       1.00000000  1       1.00000000
       1.00000000  1       1.00000000
       1.00000000  1       1.00000000
       1.00000000  1       1.00000000
       1.00000000  1       1.00000000
       1.00000000  1       1.00000000
       1.00000000  1       1.00000000
       1.00000000  1       1.00000000
       1.00000000  1       1.00000000
       1.00000000  1       1.00000000
       1.00000000  1       1.00000000
       1.00000000  1       1.00000000
       1.00000000  1       1.00000000
       1.00000000  1       1.00000000
       1.00000000  1       1.00000000
       1.00000000  1       1.00000000
       1.00000000  1       1.00000000
       1.00000000  1       1.00000000
       1.00000000  1       1.00000000
       1.00000000  1       1.00000000
       1.00000000  1       1.00000000
       1.00000000  1       1.00000000
       1.00000000  1       1.00000000
       1.00000000  1       1.00000000
       1.00000000  1       1.00000000
       1.00000000  1       1.00000000
       1.00000000  1       1.00000000
       1.00000000  1       1.00000000
       1.00000000  1       1.00000000
       1.00000000  1       1.00000000
       1.00000000  1       1.00000000
       1.00000000  1       1.00000000
       1.00000000  1       1.00000000
       1.00000000  1       1.00000000
       1.00000000  1       1.00000000
       1.00000000  1       1.00000000
       1.00000000  1       1.00000000
       1.00000000  1       1.00000000
       1.00000000  1       1.00000000
       1.00000000  1       1.00000000
       1.00000000  1       1.00000000
       1.00000000  1       1.00000000
       1.00000000  1       1.00000000
       1.00000000  1       1.00000000
       1.00000000  1       1.00000000
       1.00000000  1       1.00000000
       1.00000000  1       1.00000000
       1.00000000  1       1.00000000
       1.00000000  1       1.00000000
       1.00000000  1       1.00000000
       1.00000000  1       1.00000000
       1.00000000  1       1.00000000
       1.00000000  1       1.00000000
       1.00000000  1       1.00000000
       1.00000000  1       1.00000000
       1.00000000  1       1.00000000
       1.00000000  1       1.00000000
       1.00000000  1       1.00000000
       1.00000000  1       1.00000000
       1.00000000  1       1.00000000
       1.00000000  1       1.00000000
       1.00000000  1       1.00000000
       1.00000000  1       1.00000000
       1.00000000  1       1.00000000
       1.00000000  1       1.00000000
       1.00000000  1       1.00000000
       1.00000000  1       1.00000000
       1.00000000  1       1.00000000
       1.00000000  1       1.00000000
       1.00000000  1       1.00000000
       1.00000000  1       1.00000000
       1.00000000  1       1.00000000
       1.00000000  1       1.00000000
       1.00000000  1       1.00000000
       1.00000000  1       1.00000000
       1.00000000  1       1.00000000
       1.00000000  1       1.00000000
       1.00000000  1       1.00000000
       1.00000000  1       1.00000000
       1.00000000  1       1.00000000
       1.00000000  1       1.00000000
       1.00000000  1       1.00000000
       1.00000000  1       1.00000000
       1.00000000  1       1.00000000
       1.00000000  1       1.00000000
       1.00000000  1       1.00000000
       1.00000000  1       1.00000000
       1.00000000  1       1.00000000
       1.00000000  1       1.00000000
       1.00000000  1       1.00000000
       1.00000000  1       1.00000000
       1.00000000  1       1.00000000
       1.00000000  1       1.00000000
       1.00000000  1       1.00000000
       1.00000000  1       1.00000000
       1.00000000  1       1.00000000
       1.00000000  1       1.00000000
       1.00000000  1       1.00000000
       1.00000000  1       1.00000000
       1.00000000  1       1.00000000
       1.00000000  1       1.00000000
       1.00000000  1       1.00000000
       1.00000000  1       1.00000000
       1.00000000  1       1.00000000
       1.00000000  1       1.00000000
       1.00000000  1       1.00000000
       1.00000000  1       1.00000000
       1.00000000  1       1.00000000
       1.00000000  1       1.00000000
       1.00000000  1       1.00000000
       1.00000000  1       1.00000000
       1.00000000  1       1.00000000
       1.00000000  1       1.00000000
       1.00000000  1       1.00000000
       1.00000000  1       1.00000000
       1.00000000  1       1.00000000
       1.00000000  1       1.00000000
       1.00000000  1       1.00000000
       1.00000000  1       1.00000000
       1.00000000  1       1.00000000
       1.00000000  1       1.00000000
       1.00000000  1       1.00000000
       1.00000000  1       1.00000000
       1.00000000  1       1.00000000
       1.00000000  1       1.00000000
       1.00000000  1       1.00000000
       1.00000000  1       1.00000000
       1.00000000  1       1.00000000
       1.00000000  1       1.00000000
       1.00000000  1       1.00000000
       1.00000000  1       1.00000000
       1.00000000  1       1.00000000
       1.00000000  1       1.00000000
       1.00000000  1       1.00000000
       1.00000000  1       1.00000000
       1.00000000  1       1.00000000
       1.00000000  1       1.00000000
       1.00000000  1       1.00000000
       1.00000000  1       1.00000000
       1.00000000  1       1.00000000
       1.00000000  1       1.00000000
       1.00000000  1       1.00000000
       1.00000000  1       1.00000000
       1.00000000  1       1.00000000
       1.00000000  1       1.00000000
       1.00000000  1       1.00000000
       1.00000000  1       1.00000000
       1.00000000  1       1.00000000
       1.00000000  1       1.00000000
       1.00000000  1       1.00000000
       1.00000000  1       1.00000000
       1.00000000  1       1.00000000
       1.00000000  1       1.00000000
       1.00000000  1       1.00000000
       1.00000000  1       1.00000000
       1.00000000  1       1.00000000
       1.00000000  1       1.00000000
       1.00000000  1       1.00000000
       1.00000000  1       1.00000000
       1.00000000  1       1.00000000
       1.00000000  1       1.00000000
       1.00000000  1       1.00000000
       1.00000000  1       1.00000000
       1.00000000  1       1.00000000
       1.00000000  1       1.00000000
       1.00000000  1       1.00000000
       1.00000000  1       1.00000000
       1.00000000  1       1.00000000
       1.00000000  1       1.00000000
       1.00000000  1       1.00000000
       1.00000000  1       1.00000000
       1.00000000  1       1.00000000
       1.00000000  1       1.00000000
       1.00000000  1       1.00000000
       1.00000000  1       1.00000000
       1.00000000  1       1.00000000
END perioddata

