BEGIN OPTIONS
END OPTIONS

BEGIN CONTINUOUS FILEOUT gwf.ghb.obs.csv
  inner   ghb INNER
END CONTINUOUS
