# File generated by Flopy version 3.8.2 on 01/14/2025 at 09:26:08.
BEGIN options
  auxiliary  salinity
  boundnames
  OBS6 FILEIN gwf.ghb.obs
END options

BEGIN dimensions
  MAXBOUND  72
END dimensions

BEGIN period  1
    OPEN/CLOSE  'external/ghb.dat'
END period  1

