# File generated by Flopy version 3.8.2 on 01/14/2025 at 09:26:08.
BEGIN options
  BUDGET  FILEOUT  gwf.cbc
  HEAD  FILEOUT  gwf.hds
END options

BEGIN period  1
  SAVE  head  last
  SAVE  budget  last
END period  1

