# File generated by Flopy version 3.8.2 on 12/23/2024 at 13:10:29.
BEGIN options
  auxiliary  salinity
END options

BEGIN dimensions
  MAXBOUND  72
END dimensions

BEGIN period  1
    OPEN/CLOSE  'external/ghb.dat'
END period  1

