# File generated by Flopy version 3.8.2 on 12/23/2024 at 13:10:29.
BEGIN options
END options

BEGIN griddata
  strt  LAYERED
    OPEN/CLOSE  'external/shd_00.dat'  FACTOR  1.0
    OPEN/CLOSE  'external/shd_01.dat'  FACTOR  1.0
    OPEN/CLOSE  'external/shd_02.dat'  FACTOR  1.0
    OPEN/CLOSE  'external/shd_03.dat'  FACTOR  1.0
    OPEN/CLOSE  'external/shd_04.dat'  FACTOR  1.0
    OPEN/CLOSE  'external/shd_05.dat'  FACTOR  1.0
    OPEN/CLOSE  'external/shd_06.dat'  FACTOR  1.0
    OPEN/CLOSE  'external/shd_07.dat'  FACTOR  1.0
    OPEN/CLOSE  'external/shd_08.dat'  FACTOR  1.0
    OPEN/CLOSE  'external/shd_09.dat'  FACTOR  1.0
    OPEN/CLOSE  'external/shd_10.dat'  FACTOR  1.0
    OPEN/CLOSE  'external/shd_11.dat'  FACTOR  1.0
    OPEN/CLOSE  'external/shd_12.dat'  FACTOR  1.0
    OPEN/CLOSE  'external/shd_13.dat'  FACTOR  1.0
    OPEN/CLOSE  'external/shd_14.dat'  FACTOR  1.0
    OPEN/CLOSE  'external/shd_15.dat'  FACTOR  1.0
END griddata

