# File generated by Flopy version 3.8.2 on 12/23/2024 at 13:10:29.
BEGIN options
  PRINT_OPTION  summary
  COMPLEXITY  moderate
END options

