# File generated by Flopy version 3.8.2 on 12/23/2024 at 13:10:29.
BEGIN options
  auxiliary  salinity
  BOUNDNAMES
END options

BEGIN dimensions
  MAXBOUND  2896
END dimensions

BEGIN period  1
    OPEN/CLOSE  'external/chd_000.dat'
END period  1

