# File generated by Flopy version 3.8.2 on 01/14/2025 at 09:26:08.
BEGIN options
  READASARRAYS
  SAVE_FLOWS
END options

BEGIN period  1
  irch
    OPEN/CLOSE  './external/irch.dat'  FACTOR  1
  recharge
    OPEN/CLOSE  './external/rch_000.dat'  FACTOR  1.0
END period  1

BEGIN period  2
  recharge
    OPEN/CLOSE  './external/rch_001.dat'  FACTOR  1.0
END period  2

BEGIN period  3
  recharge
    OPEN/CLOSE  './external/rch_002.dat'  FACTOR  1.0
END period  3

BEGIN period  4
  recharge
    OPEN/CLOSE  './external/rch_003.dat'  FACTOR  1.0
END period  4

BEGIN period  5
  recharge
    OPEN/CLOSE  './external/rch_004.dat'  FACTOR  1.0
END period  5

BEGIN period  6
  recharge
    OPEN/CLOSE  './external/rch_005.dat'  FACTOR  1.0
END period  6

BEGIN period  7
  recharge
    OPEN/CLOSE  './external/rch_006.dat'  FACTOR  1.0
END period  7

BEGIN period  8
  recharge
    OPEN/CLOSE  './external/rch_007.dat'  FACTOR  1.0
END period  8

BEGIN period  9
  recharge
    OPEN/CLOSE  './external/rch_008.dat'  FACTOR  1.0
END period  9

BEGIN period  10
  recharge
    OPEN/CLOSE  './external/rch_009.dat'  FACTOR  1.0
END period  10

BEGIN period  11
  recharge
    OPEN/CLOSE  './external/rch_010.dat'  FACTOR  1.0
END period  11

BEGIN period  12
  recharge
    OPEN/CLOSE  './external/rch_011.dat'  FACTOR  1.0
END period  12

BEGIN period  13
  recharge
    OPEN/CLOSE  './external/rch_012.dat'  FACTOR  1.0
END period  13

BEGIN period  14
  recharge
    OPEN/CLOSE  './external/rch_013.dat'  FACTOR  1.0
END period  14

BEGIN period  15
  recharge
    OPEN/CLOSE  './external/rch_014.dat'  FACTOR  1.0
END period  15

BEGIN period  16
  recharge
    OPEN/CLOSE  './external/rch_015.dat'  FACTOR  1.0
END period  16

BEGIN period  17
  recharge
    OPEN/CLOSE  './external/rch_016.dat'  FACTOR  1.0
END period  17

BEGIN period  18
  recharge
    OPEN/CLOSE  './external/rch_017.dat'  FACTOR  1.0
END period  18

BEGIN period  19
  recharge
    OPEN/CLOSE  './external/rch_018.dat'  FACTOR  1.0
END period  19

BEGIN period  20
  recharge
    OPEN/CLOSE  './external/rch_019.dat'  FACTOR  1.0
END period  20

BEGIN period  21
  recharge
    OPEN/CLOSE  './external/rch_020.dat'  FACTOR  1.0
END period  21

BEGIN period  22
  recharge
    OPEN/CLOSE  './external/rch_021.dat'  FACTOR  1.0
END period  22

BEGIN period  23
  recharge
    OPEN/CLOSE  './external/rch_022.dat'  FACTOR  1.0
END period  23

BEGIN period  24
  recharge
    OPEN/CLOSE  './external/rch_023.dat'  FACTOR  1.0
END period  24

BEGIN period  25
  recharge
    OPEN/CLOSE  './external/rch_024.dat'  FACTOR  1.0
END period  25

BEGIN period  26
  recharge
    OPEN/CLOSE  './external/rch_025.dat'  FACTOR  1.0
END period  26

BEGIN period  27
  recharge
    OPEN/CLOSE  './external/rch_026.dat'  FACTOR  1.0
END period  27

BEGIN period  28
  recharge
    OPEN/CLOSE  './external/rch_027.dat'  FACTOR  1.0
END period  28

BEGIN period  29
  recharge
    OPEN/CLOSE  './external/rch_028.dat'  FACTOR  1.0
END period  29

BEGIN period  30
  recharge
    OPEN/CLOSE  './external/rch_029.dat'  FACTOR  1.0
END period  30

BEGIN period  31
  recharge
    OPEN/CLOSE  './external/rch_030.dat'  FACTOR  1.0
END period  31

BEGIN period  32
  recharge
    OPEN/CLOSE  './external/rch_031.dat'  FACTOR  1.0
END period  32

BEGIN period  33
  recharge
    OPEN/CLOSE  './external/rch_032.dat'  FACTOR  1.0
END period  33

BEGIN period  34
  recharge
    OPEN/CLOSE  './external/rch_033.dat'  FACTOR  1.0
END period  34

BEGIN period  35
  recharge
    OPEN/CLOSE  './external/rch_034.dat'  FACTOR  1.0
END period  35

BEGIN period  36
  recharge
    OPEN/CLOSE  './external/rch_035.dat'  FACTOR  1.0
END period  36

BEGIN period  37
  recharge
    OPEN/CLOSE  './external/rch_036.dat'  FACTOR  1.0
END period  37

BEGIN period  38
  recharge
    OPEN/CLOSE  './external/rch_037.dat'  FACTOR  1.0
END period  38

BEGIN period  39
  recharge
    OPEN/CLOSE  './external/rch_038.dat'  FACTOR  1.0
END period  39

BEGIN period  40
  recharge
    OPEN/CLOSE  './external/rch_039.dat'  FACTOR  1.0
END period  40

BEGIN period  41
  recharge
    OPEN/CLOSE  './external/rch_040.dat'  FACTOR  1.0
END period  41

BEGIN period  42
  recharge
    OPEN/CLOSE  './external/rch_041.dat'  FACTOR  1.0
END period  42

BEGIN period  43
  recharge
    OPEN/CLOSE  './external/rch_042.dat'  FACTOR  1.0
END period  43

BEGIN period  44
  recharge
    OPEN/CLOSE  './external/rch_043.dat'  FACTOR  1.0
END period  44

BEGIN period  45
  recharge
    OPEN/CLOSE  './external/rch_044.dat'  FACTOR  1.0
END period  45

BEGIN period  46
  recharge
    OPEN/CLOSE  './external/rch_045.dat'  FACTOR  1.0
END period  46

BEGIN period  47
  recharge
    OPEN/CLOSE  './external/rch_046.dat'  FACTOR  1.0
END period  47

BEGIN period  48
  recharge
    OPEN/CLOSE  './external/rch_047.dat'  FACTOR  1.0
END period  48

BEGIN period  49
  recharge
    OPEN/CLOSE  './external/rch_048.dat'  FACTOR  1.0
END period  49

BEGIN period  50
  recharge
    OPEN/CLOSE  './external/rch_049.dat'  FACTOR  1.0
END period  50

BEGIN period  51
  recharge
    OPEN/CLOSE  './external/rch_050.dat'  FACTOR  1.0
END period  51

BEGIN period  52
  recharge
    OPEN/CLOSE  './external/rch_051.dat'  FACTOR  1.0
END period  52

BEGIN period  53
  recharge
    OPEN/CLOSE  './external/rch_052.dat'  FACTOR  1.0
END period  53

BEGIN period  54
  recharge
    OPEN/CLOSE  './external/rch_053.dat'  FACTOR  1.0
END period  54

BEGIN period  55
  recharge
    OPEN/CLOSE  './external/rch_054.dat'  FACTOR  1.0
END period  55

BEGIN period  56
  recharge
    OPEN/CLOSE  './external/rch_055.dat'  FACTOR  1.0
END period  56

BEGIN period  57
  recharge
    OPEN/CLOSE  './external/rch_056.dat'  FACTOR  1.0
END period  57

BEGIN period  58
  recharge
    OPEN/CLOSE  './external/rch_057.dat'  FACTOR  1.0
END period  58

BEGIN period  59
  recharge
    OPEN/CLOSE  './external/rch_058.dat'  FACTOR  1.0
END period  59

BEGIN period  60
  recharge
    OPEN/CLOSE  './external/rch_059.dat'  FACTOR  1.0
END period  60

BEGIN period  61
  recharge
    OPEN/CLOSE  './external/rch_060.dat'  FACTOR  1.0
END period  61

BEGIN period  62
  recharge
    OPEN/CLOSE  './external/rch_061.dat'  FACTOR  1.0
END period  62

BEGIN period  63
  recharge
    OPEN/CLOSE  './external/rch_062.dat'  FACTOR  1.0
END period  63

BEGIN period  64
  recharge
    OPEN/CLOSE  './external/rch_063.dat'  FACTOR  1.0
END period  64

BEGIN period  65
  recharge
    OPEN/CLOSE  './external/rch_064.dat'  FACTOR  1.0
END period  65

BEGIN period  66
  recharge
    OPEN/CLOSE  './external/rch_065.dat'  FACTOR  1.0
END period  66

BEGIN period  67
  recharge
    OPEN/CLOSE  './external/rch_066.dat'  FACTOR  1.0
END period  67

BEGIN period  68
  recharge
    OPEN/CLOSE  './external/rch_067.dat'  FACTOR  1.0
END period  68

BEGIN period  69
  recharge
    OPEN/CLOSE  './external/rch_068.dat'  FACTOR  1.0
END period  69

BEGIN period  70
  recharge
    OPEN/CLOSE  './external/rch_069.dat'  FACTOR  1.0
END period  70

BEGIN period  71
  recharge
    OPEN/CLOSE  './external/rch_070.dat'  FACTOR  1.0
END period  71

BEGIN period  72
  recharge
    OPEN/CLOSE  './external/rch_071.dat'  FACTOR  1.0
END period  72

BEGIN period  73
  recharge
    OPEN/CLOSE  './external/rch_072.dat'  FACTOR  1.0
END period  73

BEGIN period  74
  recharge
    OPEN/CLOSE  './external/rch_073.dat'  FACTOR  1.0
END period  74

BEGIN period  75
  recharge
    OPEN/CLOSE  './external/rch_074.dat'  FACTOR  1.0
END period  75

BEGIN period  76
  recharge
    OPEN/CLOSE  './external/rch_075.dat'  FACTOR  1.0
END period  76

BEGIN period  77
  recharge
    OPEN/CLOSE  './external/rch_076.dat'  FACTOR  1.0
END period  77

BEGIN period  78
  recharge
    OPEN/CLOSE  './external/rch_077.dat'  FACTOR  1.0
END period  78

BEGIN period  79
  recharge
    OPEN/CLOSE  './external/rch_078.dat'  FACTOR  1.0
END period  79

BEGIN period  80
  recharge
    OPEN/CLOSE  './external/rch_079.dat'  FACTOR  1.0
END period  80

BEGIN period  81
  recharge
    OPEN/CLOSE  './external/rch_080.dat'  FACTOR  1.0
END period  81

BEGIN period  82
  recharge
    OPEN/CLOSE  './external/rch_081.dat'  FACTOR  1.0
END period  82

BEGIN period  83
  recharge
    OPEN/CLOSE  './external/rch_082.dat'  FACTOR  1.0
END period  83

BEGIN period  84
  recharge
    OPEN/CLOSE  './external/rch_083.dat'  FACTOR  1.0
END period  84

BEGIN period  85
  recharge
    OPEN/CLOSE  './external/rch_084.dat'  FACTOR  1.0
END period  85

BEGIN period  86
  recharge
    OPEN/CLOSE  './external/rch_085.dat'  FACTOR  1.0
END period  86

BEGIN period  87
  recharge
    OPEN/CLOSE  './external/rch_086.dat'  FACTOR  1.0
END period  87

BEGIN period  88
  recharge
    OPEN/CLOSE  './external/rch_087.dat'  FACTOR  1.0
END period  88

BEGIN period  89
  recharge
    OPEN/CLOSE  './external/rch_088.dat'  FACTOR  1.0
END period  89

BEGIN period  90
  recharge
    OPEN/CLOSE  './external/rch_089.dat'  FACTOR  1.0
END period  90

BEGIN period  91
  recharge
    OPEN/CLOSE  './external/rch_090.dat'  FACTOR  1.0
END period  91

BEGIN period  92
  recharge
    OPEN/CLOSE  './external/rch_091.dat'  FACTOR  1.0
END period  92

BEGIN period  93
  recharge
    OPEN/CLOSE  './external/rch_092.dat'  FACTOR  1.0
END period  93

BEGIN period  94
  recharge
    OPEN/CLOSE  './external/rch_093.dat'  FACTOR  1.0
END period  94

BEGIN period  95
  recharge
    OPEN/CLOSE  './external/rch_094.dat'  FACTOR  1.0
END period  95

BEGIN period  96
  recharge
    OPEN/CLOSE  './external/rch_095.dat'  FACTOR  1.0
END period  96

BEGIN period  97
  recharge
    OPEN/CLOSE  './external/rch_096.dat'  FACTOR  1.0
END period  97

BEGIN period  98
  recharge
    OPEN/CLOSE  './external/rch_097.dat'  FACTOR  1.0
END period  98

BEGIN period  99
  recharge
    OPEN/CLOSE  './external/rch_098.dat'  FACTOR  1.0
END period  99

BEGIN period  100
  recharge
    OPEN/CLOSE  './external/rch_099.dat'  FACTOR  1.0
END period  100

BEGIN period  101
  recharge
    OPEN/CLOSE  './external/rch_100.dat'  FACTOR  1.0
END period  101

BEGIN period  102
  recharge
    OPEN/CLOSE  './external/rch_101.dat'  FACTOR  1.0
END period  102

BEGIN period  103
  recharge
    OPEN/CLOSE  './external/rch_102.dat'  FACTOR  1.0
END period  103

BEGIN period  104
  recharge
    OPEN/CLOSE  './external/rch_103.dat'  FACTOR  1.0
END period  104

BEGIN period  105
  recharge
    OPEN/CLOSE  './external/rch_104.dat'  FACTOR  1.0
END period  105

BEGIN period  106
  recharge
    OPEN/CLOSE  './external/rch_105.dat'  FACTOR  1.0
END period  106

BEGIN period  107
  recharge
    OPEN/CLOSE  './external/rch_106.dat'  FACTOR  1.0
END period  107

BEGIN period  108
  recharge
    OPEN/CLOSE  './external/rch_107.dat'  FACTOR  1.0
END period  108

BEGIN period  109
  recharge
    OPEN/CLOSE  './external/rch_108.dat'  FACTOR  1.0
END period  109

BEGIN period  110
  recharge
    OPEN/CLOSE  './external/rch_109.dat'  FACTOR  1.0
END period  110

BEGIN period  111
  recharge
    OPEN/CLOSE  './external/rch_110.dat'  FACTOR  1.0
END period  111

BEGIN period  112
  recharge
    OPEN/CLOSE  './external/rch_111.dat'  FACTOR  1.0
END period  112

BEGIN period  113
  recharge
    OPEN/CLOSE  './external/rch_112.dat'  FACTOR  1.0
END period  113

BEGIN period  114
  recharge
    OPEN/CLOSE  './external/rch_113.dat'  FACTOR  1.0
END period  114

BEGIN period  115
  recharge
    OPEN/CLOSE  './external/rch_114.dat'  FACTOR  1.0
END period  115

BEGIN period  116
  recharge
    OPEN/CLOSE  './external/rch_115.dat'  FACTOR  1.0
END period  116

BEGIN period  117
  recharge
    OPEN/CLOSE  './external/rch_116.dat'  FACTOR  1.0
END period  117

BEGIN period  118
  recharge
    OPEN/CLOSE  './external/rch_117.dat'  FACTOR  1.0
END period  118

BEGIN period  119
  recharge
    OPEN/CLOSE  './external/rch_118.dat'  FACTOR  1.0
END period  119

BEGIN period  120
  recharge
    OPEN/CLOSE  './external/rch_119.dat'  FACTOR  1.0
END period  120

BEGIN period  121
  recharge
    OPEN/CLOSE  './external/rch_120.dat'  FACTOR  1.0
END period  121

BEGIN period  122
  recharge
    OPEN/CLOSE  './external/rch_121.dat'  FACTOR  1.0
END period  122

BEGIN period  123
  recharge
    OPEN/CLOSE  './external/rch_122.dat'  FACTOR  1.0
END period  123

BEGIN period  124
  recharge
    OPEN/CLOSE  './external/rch_123.dat'  FACTOR  1.0
END period  124

BEGIN period  125
  recharge
    OPEN/CLOSE  './external/rch_124.dat'  FACTOR  1.0
END period  125

BEGIN period  126
  recharge
    OPEN/CLOSE  './external/rch_125.dat'  FACTOR  1.0
END period  126

BEGIN period  127
  recharge
    OPEN/CLOSE  './external/rch_126.dat'  FACTOR  1.0
END period  127

BEGIN period  128
  recharge
    OPEN/CLOSE  './external/rch_127.dat'  FACTOR  1.0
END period  128

BEGIN period  129
  recharge
    OPEN/CLOSE  './external/rch_128.dat'  FACTOR  1.0
END period  129

BEGIN period  130
  recharge
    OPEN/CLOSE  './external/rch_129.dat'  FACTOR  1.0
END period  130

BEGIN period  131
  recharge
    OPEN/CLOSE  './external/rch_130.dat'  FACTOR  1.0
END period  131

BEGIN period  132
  recharge
    OPEN/CLOSE  './external/rch_131.dat'  FACTOR  1.0
END period  132

BEGIN period  133
  recharge
    OPEN/CLOSE  './external/rch_132.dat'  FACTOR  1.0
END period  133

BEGIN period  134
  recharge
    OPEN/CLOSE  './external/rch_133.dat'  FACTOR  1.0
END period  134

BEGIN period  135
  recharge
    OPEN/CLOSE  './external/rch_134.dat'  FACTOR  1.0
END period  135

BEGIN period  136
  recharge
    OPEN/CLOSE  './external/rch_135.dat'  FACTOR  1.0
END period  136

BEGIN period  137
  recharge
    OPEN/CLOSE  './external/rch_136.dat'  FACTOR  1.0
END period  137

BEGIN period  138
  recharge
    OPEN/CLOSE  './external/rch_137.dat'  FACTOR  1.0
END period  138

BEGIN period  139
  recharge
    OPEN/CLOSE  './external/rch_138.dat'  FACTOR  1.0
END period  139

BEGIN period  140
  recharge
    OPEN/CLOSE  './external/rch_139.dat'  FACTOR  1.0
END period  140

BEGIN period  141
  recharge
    OPEN/CLOSE  './external/rch_140.dat'  FACTOR  1.0
END period  141

BEGIN period  142
  recharge
    OPEN/CLOSE  './external/rch_141.dat'  FACTOR  1.0
END period  142

BEGIN period  143
  recharge
    OPEN/CLOSE  './external/rch_142.dat'  FACTOR  1.0
END period  143

BEGIN period  144
  recharge
    OPEN/CLOSE  './external/rch_143.dat'  FACTOR  1.0
END period  144

BEGIN period  145
  recharge
    OPEN/CLOSE  './external/rch_144.dat'  FACTOR  1.0
END period  145

BEGIN period  146
  recharge
    OPEN/CLOSE  './external/rch_145.dat'  FACTOR  1.0
END period  146

BEGIN period  147
  recharge
    OPEN/CLOSE  './external/rch_146.dat'  FACTOR  1.0
END period  147

BEGIN period  148
  recharge
    OPEN/CLOSE  './external/rch_147.dat'  FACTOR  1.0
END period  148

BEGIN period  149
  recharge
    OPEN/CLOSE  './external/rch_148.dat'  FACTOR  1.0
END period  149

BEGIN period  150
  recharge
    OPEN/CLOSE  './external/rch_149.dat'  FACTOR  1.0
END period  150

BEGIN period  151
  recharge
    OPEN/CLOSE  './external/rch_150.dat'  FACTOR  1.0
END period  151

BEGIN period  152
  recharge
    OPEN/CLOSE  './external/rch_151.dat'  FACTOR  1.0
END period  152

BEGIN period  153
  recharge
    OPEN/CLOSE  './external/rch_152.dat'  FACTOR  1.0
END period  153

BEGIN period  154
  recharge
    OPEN/CLOSE  './external/rch_153.dat'  FACTOR  1.0
END period  154

BEGIN period  155
  recharge
    OPEN/CLOSE  './external/rch_154.dat'  FACTOR  1.0
END period  155

BEGIN period  156
  recharge
    OPEN/CLOSE  './external/rch_155.dat'  FACTOR  1.0
END period  156

BEGIN period  157
  recharge
    OPEN/CLOSE  './external/rch_156.dat'  FACTOR  1.0
END period  157

BEGIN period  158
  recharge
    OPEN/CLOSE  './external/rch_157.dat'  FACTOR  1.0
END period  158

BEGIN period  159
  recharge
    OPEN/CLOSE  './external/rch_158.dat'  FACTOR  1.0
END period  159

BEGIN period  160
  recharge
    OPEN/CLOSE  './external/rch_159.dat'  FACTOR  1.0
END period  160

BEGIN period  161
  recharge
    OPEN/CLOSE  './external/rch_160.dat'  FACTOR  1.0
END period  161

BEGIN period  162
  recharge
    OPEN/CLOSE  './external/rch_161.dat'  FACTOR  1.0
END period  162

BEGIN period  163
  recharge
    OPEN/CLOSE  './external/rch_162.dat'  FACTOR  1.0
END period  163

BEGIN period  164
  recharge
    OPEN/CLOSE  './external/rch_163.dat'  FACTOR  1.0
END period  164

BEGIN period  165
  recharge
    OPEN/CLOSE  './external/rch_164.dat'  FACTOR  1.0
END period  165

BEGIN period  166
  recharge
    OPEN/CLOSE  './external/rch_165.dat'  FACTOR  1.0
END period  166

BEGIN period  167
  recharge
    OPEN/CLOSE  './external/rch_166.dat'  FACTOR  1.0
END period  167

BEGIN period  168
  recharge
    OPEN/CLOSE  './external/rch_167.dat'  FACTOR  1.0
END period  168

BEGIN period  169
  recharge
    OPEN/CLOSE  './external/rch_168.dat'  FACTOR  1.0
END period  169

BEGIN period  170
  recharge
    OPEN/CLOSE  './external/rch_169.dat'  FACTOR  1.0
END period  170

BEGIN period  171
  recharge
    OPEN/CLOSE  './external/rch_170.dat'  FACTOR  1.0
END period  171

BEGIN period  172
  recharge
    OPEN/CLOSE  './external/rch_171.dat'  FACTOR  1.0
END period  172

BEGIN period  173
  recharge
    OPEN/CLOSE  './external/rch_172.dat'  FACTOR  1.0
END period  173

BEGIN period  174
  recharge
    OPEN/CLOSE  './external/rch_173.dat'  FACTOR  1.0
END period  174

BEGIN period  175
  recharge
    OPEN/CLOSE  './external/rch_174.dat'  FACTOR  1.0
END period  175

BEGIN period  176
  recharge
    OPEN/CLOSE  './external/rch_175.dat'  FACTOR  1.0
END period  176

BEGIN period  177
  recharge
    OPEN/CLOSE  './external/rch_176.dat'  FACTOR  1.0
END period  177

BEGIN period  178
  recharge
    OPEN/CLOSE  './external/rch_177.dat'  FACTOR  1.0
END period  178

BEGIN period  179
  recharge
    OPEN/CLOSE  './external/rch_178.dat'  FACTOR  1.0
END period  179

BEGIN period  180
  recharge
    OPEN/CLOSE  './external/rch_179.dat'  FACTOR  1.0
END period  180

BEGIN period  181
  recharge
    OPEN/CLOSE  './external/rch_180.dat'  FACTOR  1.0
END period  181

BEGIN period  182
  recharge
    OPEN/CLOSE  './external/rch_181.dat'  FACTOR  1.0
END period  182

BEGIN period  183
  recharge
    OPEN/CLOSE  './external/rch_182.dat'  FACTOR  1.0
END period  183

BEGIN period  184
  recharge
    OPEN/CLOSE  './external/rch_183.dat'  FACTOR  1.0
END period  184

BEGIN period  185
  recharge
    OPEN/CLOSE  './external/rch_184.dat'  FACTOR  1.0
END period  185

BEGIN period  186
  recharge
    OPEN/CLOSE  './external/rch_185.dat'  FACTOR  1.0
END period  186

BEGIN period  187
  recharge
    OPEN/CLOSE  './external/rch_186.dat'  FACTOR  1.0
END period  187

BEGIN period  188
  recharge
    OPEN/CLOSE  './external/rch_187.dat'  FACTOR  1.0
END period  188

BEGIN period  189
  recharge
    OPEN/CLOSE  './external/rch_188.dat'  FACTOR  1.0
END period  189

BEGIN period  190
  recharge
    OPEN/CLOSE  './external/rch_189.dat'  FACTOR  1.0
END period  190

BEGIN period  191
  recharge
    OPEN/CLOSE  './external/rch_190.dat'  FACTOR  1.0
END period  191

BEGIN period  192
  recharge
    OPEN/CLOSE  './external/rch_191.dat'  FACTOR  1.0
END period  192

BEGIN period  193
  recharge
    OPEN/CLOSE  './external/rch_192.dat'  FACTOR  1.0
END period  193

BEGIN period  194
  recharge
    OPEN/CLOSE  './external/rch_193.dat'  FACTOR  1.0
END period  194

BEGIN period  195
  recharge
    OPEN/CLOSE  './external/rch_194.dat'  FACTOR  1.0
END period  195

BEGIN period  196
  recharge
    OPEN/CLOSE  './external/rch_195.dat'  FACTOR  1.0
END period  196

BEGIN period  197
  recharge
    OPEN/CLOSE  './external/rch_196.dat'  FACTOR  1.0
END period  197

BEGIN period  198
  recharge
    OPEN/CLOSE  './external/rch_197.dat'  FACTOR  1.0
END period  198

BEGIN period  199
  recharge
    OPEN/CLOSE  './external/rch_198.dat'  FACTOR  1.0
END period  199

BEGIN period  200
  recharge
    OPEN/CLOSE  './external/rch_199.dat'  FACTOR  1.0
END period  200

BEGIN period  201
  recharge
    OPEN/CLOSE  './external/rch_200.dat'  FACTOR  1.0
END period  201

BEGIN period  202
  recharge
    OPEN/CLOSE  './external/rch_201.dat'  FACTOR  1.0
END period  202

BEGIN period  203
  recharge
    OPEN/CLOSE  './external/rch_202.dat'  FACTOR  1.0
END period  203

BEGIN period  204
  recharge
    OPEN/CLOSE  './external/rch_203.dat'  FACTOR  1.0
END period  204

BEGIN period  205
  recharge
    OPEN/CLOSE  './external/rch_204.dat'  FACTOR  1.0
END period  205

BEGIN period  206
  recharge
    OPEN/CLOSE  './external/rch_205.dat'  FACTOR  1.0
END period  206

BEGIN period  207
  recharge
    OPEN/CLOSE  './external/rch_206.dat'  FACTOR  1.0
END period  207

BEGIN period  208
  recharge
    OPEN/CLOSE  './external/rch_207.dat'  FACTOR  1.0
END period  208

BEGIN period  209
  recharge
    OPEN/CLOSE  './external/rch_208.dat'  FACTOR  1.0
END period  209

BEGIN period  210
  recharge
    OPEN/CLOSE  './external/rch_209.dat'  FACTOR  1.0
END period  210

BEGIN period  211
  recharge
    OPEN/CLOSE  './external/rch_210.dat'  FACTOR  1.0
END period  211

BEGIN period  212
  recharge
    OPEN/CLOSE  './external/rch_211.dat'  FACTOR  1.0
END period  212

BEGIN period  213
  recharge
    OPEN/CLOSE  './external/rch_212.dat'  FACTOR  1.0
END period  213

BEGIN period  214
  recharge
    OPEN/CLOSE  './external/rch_213.dat'  FACTOR  1.0
END period  214

BEGIN period  215
  recharge
    OPEN/CLOSE  './external/rch_214.dat'  FACTOR  1.0
END period  215

BEGIN period  216
  recharge
    OPEN/CLOSE  './external/rch_215.dat'  FACTOR  1.0
END period  216

BEGIN period  217
  recharge
    OPEN/CLOSE  './external/rch_216.dat'  FACTOR  1.0
END period  217

BEGIN period  218
  recharge
    OPEN/CLOSE  './external/rch_217.dat'  FACTOR  1.0
END period  218

BEGIN period  219
  recharge
    OPEN/CLOSE  './external/rch_218.dat'  FACTOR  1.0
END period  219

BEGIN period  220
  recharge
    OPEN/CLOSE  './external/rch_219.dat'  FACTOR  1.0
END period  220

BEGIN period  221
  recharge
    OPEN/CLOSE  './external/rch_220.dat'  FACTOR  1.0
END period  221

BEGIN period  222
  recharge
    OPEN/CLOSE  './external/rch_221.dat'  FACTOR  1.0
END period  222

BEGIN period  223
  recharge
    OPEN/CLOSE  './external/rch_222.dat'  FACTOR  1.0
END period  223

BEGIN period  224
  recharge
    OPEN/CLOSE  './external/rch_223.dat'  FACTOR  1.0
END period  224

BEGIN period  225
  recharge
    OPEN/CLOSE  './external/rch_224.dat'  FACTOR  1.0
END period  225

BEGIN period  226
  recharge
    OPEN/CLOSE  './external/rch_225.dat'  FACTOR  1.0
END period  226

BEGIN period  227
  recharge
    OPEN/CLOSE  './external/rch_226.dat'  FACTOR  1.0
END period  227

BEGIN period  228
  recharge
    OPEN/CLOSE  './external/rch_227.dat'  FACTOR  1.0
END period  228

BEGIN period  229
  recharge
    OPEN/CLOSE  './external/rch_228.dat'  FACTOR  1.0
END period  229

BEGIN period  230
  recharge
    OPEN/CLOSE  './external/rch_229.dat'  FACTOR  1.0
END period  230

BEGIN period  231
  recharge
    OPEN/CLOSE  './external/rch_230.dat'  FACTOR  1.0
END period  231

BEGIN period  232
  recharge
    OPEN/CLOSE  './external/rch_231.dat'  FACTOR  1.0
END period  232

BEGIN period  233
  recharge
    OPEN/CLOSE  './external/rch_232.dat'  FACTOR  1.0
END period  233

BEGIN period  234
  recharge
    OPEN/CLOSE  './external/rch_233.dat'  FACTOR  1.0
END period  234

BEGIN period  235
  recharge
    OPEN/CLOSE  './external/rch_234.dat'  FACTOR  1.0
END period  235

BEGIN period  236
  recharge
    OPEN/CLOSE  './external/rch_235.dat'  FACTOR  1.0
END period  236

BEGIN period  237
  recharge
    OPEN/CLOSE  './external/rch_236.dat'  FACTOR  1.0
END period  237

BEGIN period  238
  recharge
    OPEN/CLOSE  './external/rch_237.dat'  FACTOR  1.0
END period  238

BEGIN period  239
  recharge
    OPEN/CLOSE  './external/rch_238.dat'  FACTOR  1.0
END period  239

BEGIN period  240
  recharge
    OPEN/CLOSE  './external/rch_239.dat'  FACTOR  1.0
END period  240

BEGIN period  241
  recharge
    OPEN/CLOSE  './external/rch_240.dat'  FACTOR  1.0
END period  241

BEGIN period  242
  recharge
    OPEN/CLOSE  './external/rch_241.dat'  FACTOR  1.0
END period  242

BEGIN period  243
  recharge
    OPEN/CLOSE  './external/rch_242.dat'  FACTOR  1.0
END period  243

BEGIN period  244
  recharge
    OPEN/CLOSE  './external/rch_243.dat'  FACTOR  1.0
END period  244

BEGIN period  245
  recharge
    OPEN/CLOSE  './external/rch_244.dat'  FACTOR  1.0
END period  245

BEGIN period  246
  recharge
    OPEN/CLOSE  './external/rch_245.dat'  FACTOR  1.0
END period  246

BEGIN period  247
  recharge
    OPEN/CLOSE  './external/rch_246.dat'  FACTOR  1.0
END period  247

BEGIN period  248
  recharge
    OPEN/CLOSE  './external/rch_247.dat'  FACTOR  1.0
END period  248

BEGIN period  249
  recharge
    OPEN/CLOSE  './external/rch_248.dat'  FACTOR  1.0
END period  249

BEGIN period  250
  recharge
    OPEN/CLOSE  './external/rch_249.dat'  FACTOR  1.0
END period  250

BEGIN period  251
  recharge
    OPEN/CLOSE  './external/rch_250.dat'  FACTOR  1.0
END period  251

BEGIN period  252
  recharge
    OPEN/CLOSE  './external/rch_251.dat'  FACTOR  1.0
END period  252

BEGIN period  253
  recharge
    OPEN/CLOSE  './external/rch_252.dat'  FACTOR  1.0
END period  253

BEGIN period  254
  recharge
    OPEN/CLOSE  './external/rch_253.dat'  FACTOR  1.0
END period  254

BEGIN period  255
  recharge
    OPEN/CLOSE  './external/rch_254.dat'  FACTOR  1.0
END period  255

BEGIN period  256
  recharge
    OPEN/CLOSE  './external/rch_255.dat'  FACTOR  1.0
END period  256

BEGIN period  257
  recharge
    OPEN/CLOSE  './external/rch_256.dat'  FACTOR  1.0
END period  257

BEGIN period  258
  recharge
    OPEN/CLOSE  './external/rch_257.dat'  FACTOR  1.0
END period  258

BEGIN period  259
  recharge
    OPEN/CLOSE  './external/rch_258.dat'  FACTOR  1.0
END period  259

BEGIN period  260
  recharge
    OPEN/CLOSE  './external/rch_259.dat'  FACTOR  1.0
END period  260

BEGIN period  261
  recharge
    OPEN/CLOSE  './external/rch_260.dat'  FACTOR  1.0
END period  261

BEGIN period  262
  recharge
    OPEN/CLOSE  './external/rch_261.dat'  FACTOR  1.0
END period  262

BEGIN period  263
  recharge
    OPEN/CLOSE  './external/rch_262.dat'  FACTOR  1.0
END period  263

BEGIN period  264
  recharge
    OPEN/CLOSE  './external/rch_263.dat'  FACTOR  1.0
END period  264

BEGIN period  265
  recharge
    OPEN/CLOSE  './external/rch_264.dat'  FACTOR  1.0
END period  265

BEGIN period  266
  recharge
    OPEN/CLOSE  './external/rch_265.dat'  FACTOR  1.0
END period  266

BEGIN period  267
  recharge
    OPEN/CLOSE  './external/rch_266.dat'  FACTOR  1.0
END period  267

BEGIN period  268
  recharge
    OPEN/CLOSE  './external/rch_267.dat'  FACTOR  1.0
END period  268

BEGIN period  269
  recharge
    OPEN/CLOSE  './external/rch_268.dat'  FACTOR  1.0
END period  269

BEGIN period  270
  recharge
    OPEN/CLOSE  './external/rch_269.dat'  FACTOR  1.0
END period  270

BEGIN period  271
  recharge
    OPEN/CLOSE  './external/rch_270.dat'  FACTOR  1.0
END period  271

BEGIN period  272
  recharge
    OPEN/CLOSE  './external/rch_271.dat'  FACTOR  1.0
END period  272

BEGIN period  273
  recharge
    OPEN/CLOSE  './external/rch_272.dat'  FACTOR  1.0
END period  273

BEGIN period  274
  recharge
    OPEN/CLOSE  './external/rch_273.dat'  FACTOR  1.0
END period  274

BEGIN period  275
  recharge
    OPEN/CLOSE  './external/rch_274.dat'  FACTOR  1.0
END period  275

BEGIN period  276
  recharge
    OPEN/CLOSE  './external/rch_275.dat'  FACTOR  1.0
END period  276

BEGIN period  277
  recharge
    OPEN/CLOSE  './external/rch_276.dat'  FACTOR  1.0
END period  277

BEGIN period  278
  recharge
    OPEN/CLOSE  './external/rch_277.dat'  FACTOR  1.0
END period  278

BEGIN period  279
  recharge
    OPEN/CLOSE  './external/rch_278.dat'  FACTOR  1.0
END period  279

BEGIN period  280
  recharge
    OPEN/CLOSE  './external/rch_279.dat'  FACTOR  1.0
END period  280

BEGIN period  281
  recharge
    OPEN/CLOSE  './external/rch_280.dat'  FACTOR  1.0
END period  281

BEGIN period  282
  recharge
    OPEN/CLOSE  './external/rch_281.dat'  FACTOR  1.0
END period  282

BEGIN period  283
  recharge
    OPEN/CLOSE  './external/rch_282.dat'  FACTOR  1.0
END period  283

BEGIN period  284
  recharge
    OPEN/CLOSE  './external/rch_283.dat'  FACTOR  1.0
END period  284

BEGIN period  285
  recharge
    OPEN/CLOSE  './external/rch_284.dat'  FACTOR  1.0
END period  285

BEGIN period  286
  recharge
    OPEN/CLOSE  './external/rch_285.dat'  FACTOR  1.0
END period  286

BEGIN period  287
  recharge
    OPEN/CLOSE  './external/rch_286.dat'  FACTOR  1.0
END period  287

BEGIN period  288
  recharge
    OPEN/CLOSE  './external/rch_287.dat'  FACTOR  1.0
END period  288

BEGIN period  289
  recharge
    OPEN/CLOSE  './external/rch_288.dat'  FACTOR  1.0
END period  289

BEGIN period  290
  recharge
    OPEN/CLOSE  './external/rch_289.dat'  FACTOR  1.0
END period  290

BEGIN period  291
  recharge
    OPEN/CLOSE  './external/rch_290.dat'  FACTOR  1.0
END period  291

BEGIN period  292
  recharge
    OPEN/CLOSE  './external/rch_291.dat'  FACTOR  1.0
END period  292

BEGIN period  293
  recharge
    OPEN/CLOSE  './external/rch_292.dat'  FACTOR  1.0
END period  293

BEGIN period  294
  recharge
    OPEN/CLOSE  './external/rch_293.dat'  FACTOR  1.0
END period  294

BEGIN period  295
  recharge
    OPEN/CLOSE  './external/rch_294.dat'  FACTOR  1.0
END period  295

BEGIN period  296
  recharge
    OPEN/CLOSE  './external/rch_295.dat'  FACTOR  1.0
END period  296

BEGIN period  297
  recharge
    OPEN/CLOSE  './external/rch_296.dat'  FACTOR  1.0
END period  297

BEGIN period  298
  recharge
    OPEN/CLOSE  './external/rch_297.dat'  FACTOR  1.0
END period  298

BEGIN period  299
  recharge
    OPEN/CLOSE  './external/rch_298.dat'  FACTOR  1.0
END period  299

BEGIN period  300
  recharge
    OPEN/CLOSE  './external/rch_299.dat'  FACTOR  1.0
END period  300

BEGIN period  301
  recharge