# File generated by Flopy version 3.8.2 on 01/14/2025 at 09:26:08.
BEGIN options
  auxiliary  salinity
  BOUNDNAMES
END options

BEGIN dimensions
  MAXBOUND  2205
END dimensions

BEGIN period  1
    OPEN/CLOSE  'external/chd_perimeter.dat'
END period  1

