# File generated by Flopy version 3.8.2 on 01/14/2025 at 09:26:08.
BEGIN options
  auxiliary  salinity
END options

BEGIN dimensions
  MAXBOUND  544
END dimensions

BEGIN period  1
    OPEN/CLOSE  'external/chd_surface.dat'
END period  1

