# File generated by Flopy version 3.8.2 on 01/14/2025 at 09:26:08.
BEGIN options
  FLOW_IMBALANCE_CORRECTION
END options

