# File generated by Flopy version 3.8.2 on 01/14/2025 at 09:26:08.
BEGIN options
END options

BEGIN sources
  ghb  aux  salinity
  drn  aux  salinity
  chd  aux  salinity
END sources

