# File generated by Flopy version 3.8.2 on 12/23/2024 at 13:10:29.
BEGIN options
  BUDGET  FILEOUT  gwt.cbc
  CONCENTRATION  FILEOUT  gwt.ucn
END options

BEGIN period  1
  SAVE  concentration  last
  SAVE  budget  last
END period  1

