# File generated by Flopy version 3.8.2 on 01/14/2025 at 09:26:08.
BEGIN options
END options

BEGIN packages
  DIS6  gwt.dis  dis
  IC6  gwt.ic  ic
  ADV6  gwt.adv  adv
  MST6  gwt.mst  mst
  SSM6  gwt.ssm  ssm
  FMI6  gwt.fmi  fmi
  OC6  gwt.oc  oc
END packages

