# File generated by Flopy version 3.8.2 on 01/14/2025 at 09:26:07.
BEGIN options
  PRINT_OPTION  summary
  COMPLEXITY  moderate
END options

