[TITLE]
;;Project Title/Notes

[OPTIONS]
;;Option             Value
FLOW_UNITS           CMS
INFILTRATION         HORTON
FLOW_ROUTING         KINWAVE
LINK_OFFSETS         DEPTH
MIN_SLOPE            0
ALLOW_PONDING        NO
SKIP_STEADY_STATE    NO

START_DATE           01/01/2010
START_TIME           00:00:00
REPORT_START_DATE    01/01/2010
REPORT_START_TIME    00:00:00
END_DATE             04/02/2010
END_TIME             00:00:00
SWEEP_START          01/01
SWEEP_END            04/02
DRY_DAYS             10
REPORT_STEP          01:00:00
WET_STEP             00:05:00
DRY_STEP             01:00:00
ROUTING_STEP         0:01:00 
RULE_STEP            00:00:00

INERTIAL_DAMPING     PARTIAL
NORMAL_FLOW_LIMITED  BOTH
FORCE_MAIN_EQUATION  H-W
VARIABLE_STEP        0.75
LENGTHENING_STEP     0
MIN_SURFAREA         1.167
MAX_TRIALS           8
HEAD_TOLERANCE       0.0015
SYS_FLOW_TOL         5
LAT_FLOW_TOL         5
MINIMUM_STEP         0.5
THREADS              1

[EVAPORATION]
;;Data Source    Parameters
;;-------------- ----------------
CONSTANT         0.0
DRY_ONLY         NO

[RAINGAGES]
;;Name           Format    Interval SCF      Source    
;;-------------- --------- ------ ------ ----------
1                INTENSITY 24:00    1.0      TIMESERIES Precip2010      

[SUBCATCHMENTS]
;;Name           Rain Gage        Outlet           Area     %Imperv  Width    %Slope   CurbLen  SnowPack        
;;-------------- ---------------- ---------------- -------- -------- -------- -------- -------- ----------------
;Inflow in node 1
Sub_1            1                10               188.83   25       500      0.5      0                        
;Inflow in node 39
Sub_2            1                54               47.99    25       500      0.5      0                        
;Inflow in node 22
Sub_3            1                81               100.85   25       500      0.5      0                        
;Inflow in node 70
Sub_4            1                67               166.46   25       500      0.5      0                        
;Inflow in 104
Sub_5            1                104              140.27   25       500      0.5      0                        

[SUBAREAS]
;;Subcatchment   N-Imperv   N-Perv     S-Imperv   S-Perv     PctZero    RouteTo    PctRouted 
;;-------------- ---------- ---------- ---------- ---------- ---------- ---------- ----------
Sub_1            0.01       0.1        0.05       0.05       25         OUTLET    
Sub_2            0.01       0.1        0.05       0.05       25         OUTLET    
Sub_3            0.01       0.1        0.05       0.05       25         OUTLET    
Sub_4            0.01       0.1        0.05       0.05       25         OUTLET    
Sub_5            0.01       0.1        0.05       0.05       25         OUTLET    

[INFILTRATION]
;;Subcatchment   Param1     Param2     Param3     Param4     Param5    
;;-------------- ---------- ---------- ---------- ---------- ----------
Sub_1            3.0        0.5        4          7          0         
Sub_2            3.0        0.5        4          7          0         
Sub_3            3.0        0.5        4          7          0         
Sub_4            3.0        0.5        4          7          0         
Sub_5            3.0        0.5        4          7          0         

[JUNCTIONS]
;;Name           Elevation  MaxDepth   InitDepth  SurDepth   Aponded   
;;-------------- ---------- ---------- ---------- ---------- ----------
1                12.5       1.5        0          0          0         
2                6.4        4.6        0          0          0         
3                11.5       1.5        0          0          0         
4                9.3        2.7        0          0          0         
5                11.5       1.5        0          0          0         
6                8.4        2.6        0          0          0         
7                10.5       1.5        0          0          0         
8                10.5       1.5        0          0          0         
9                5          3.6        3          0          0         
10               2          7          3          0          0         
11               11.5       1.5        0          0          0         
12               9.2        3.3        0          0          0         
13               7.9        4.4        0          0          0         
14               5.5        6          0          0          0         
15               12.5       1.5        0          0          0         
16               10.6       2.5        0          0          0         
17               12.5       1.5        0          0          0         
18               12.6       2          0          0          0         
19               11.5       2.6        0          0          0         
20               12.5       1.5        0          0          0         
21               9.2        3.3        0          0          0         
22               12.5       1.5        0          0          0         
23               10.7       2.2        0          0          0         
24               12.5       1.5        0          0          0         
25               11.5       1.5        0          0          0         
26               9.3        2.6        0          0          0         
27               10.5       1.5        0          0          0         
28               6          3.9        0          0          0         
29               2.8        5.7        0          0          0         
30               7.1        4.4        0          0          0         
31               6.5        3          0          0          0         
32               13.5       1.5        0          0          0         
33               10.5       1.5        0          0          0         
34               6          2          0          0          0         
35               12.5       1.5        0          0          0         
36               9.8        3.1        0          0          0         
37               12         1.8        0          0          0         
38               13         1.5        0          0          0         
39               13         1.5        0          0          0         
40               9.8        3.6        0          0          0         
41               8.8        4.2        0          0          0         
42               8          4.6        0          0          0         
43               6.7        5.2        0          0          0         
44               2.5        6.7        0          0          0         
45               11.5       1.5        0          0          0         
46               6.9        3          0          0          0         
47               2.2        7          0          0          0         
48               11.5       1.5        0          0          0         
49               10.5       1.5        0          0          0         
50               8          2.5        0          0          0         
51               8.5        1.5        0          0          0         
52               5.4        3.8        0          0          0         
53               4.1        3.9        0          0          0         
54               .7         2.2        0          0          0         
55               9.5        1.5        0          0          0         
56               7.4        2.6        0          0          0         
57               9.5        1.5        0          0          0         
58               4.8        5.7        0          0          0         
59               9.5        1.5        0          0          0         
60               7.66       2.34       0          0          0         
61               9.5        1.5        0          0          0         
62               8          2.5        0          0          0         
63               11.5       1.5        0          0          0         
64               6          5          0          0          0         
65               .39        8.2        0          0          0         
66               5.2        3.8        0          0          0         
67               -1         9          0          0          0         
68               7          1.5        0          0          0         
69               1          8.7        0          0          0         
70               12         1.5        0          0          0         
71               9.5        1.5        0          0          0         
72               8.5        3          0          0          0         
73               6.3        4.2        0          0          0         
74               3.1        7.3        0          0          0         
75               9.8        .75        0          0          0         
76               5          5          0          0          0         
77               9.8        .75        0          0          0         
78               10         1.5        0          0          0         
79               7.6        3.4        0          0          0         
80               7.1        2.9        0          0          0         
81               2.1        5.9        0          0          0         
84               11.5       1.5        0          0          0         
85               10.6       1.8        0          0          0         
86               11.5       1.5        0          0          0         
87               9          1.5        0          0          0         
88               8.1        2.4        0          0          0         
89               8.9        2.1        0          0          0         
90               11.5       1.5        0          0          0         
91               11.5       1.5        0          0          0         
92               13         1.5        0          0          0         
93               12         1.9        0          0          0         
94               13         1.5        0          0          0         
95               6.5        5.5        0          0          0         
96               11.5       1.5        0          0          0         
97               10.8       1.7        0          0          0         
98               12.5       1.5        0          0          0         
99               11.3       2.2        0          0          0         
100              6.3        5.2        0          0          0         
101              11.3       2.2        0          0          0         
102              9          3.4        0          0          0         
103              13         1.5        0          0          0         
104              13.5       1.5        0          0          0         
105              11.5       2.7        0          0          0         
106              13.25      .2032      0          0          0         
107              11         1.5        0          0          0         
108              9.5        4          0          0          0         
109              9.5        4          0          0          0         
110              7.7        5.26       0          0          0         
111              7.4        5          0          0          0         
112              12.5       1.5        0          0          0         
113              12.5       1.5        0          0          0         
114              11.3       2.2        0          0          0         
115              10.2       2.8        0          0          0         
116              9.1        3.4        0          0          0         
117              6.7        4.8        0          0          0         
118              5.4        5.5        0          0          0         
119              12         1.5        0          0          0         
120              10.2       2.7        0          0          0         
121              10.7       3.5        0          0          0         
122              12.5       1.5        0          0          0         
123              13         1.5        0          0          0         
124              11.1       2.3        0          0          0         
125              12.5       1.5        0          0          0         
126              10.2       2.8        0          0          0         
127              9.2        3.3        0          0          0         
128              7.7        3.7        0          0          0         
129              9.2        3.3        0          0          0         
130              4.6        5.8        0          0          0         
131              12.5       1.5        0          0          0         
132              9.7        3.3        0          0          0         
133              12         1.5        0          0          0         
134              8          4.5        0          0          0         
135              12         1.5        0          0          0         
136              12         1.5        0          0          0         
137              10.6       2.4        0          0          0         
138              13         1.5        0          0          0         
139              12         2          0          0          0         
140              13         1.5        0          0          0         
141              12.5       1.5        0          0          0         
142              10.2       3.3        0          0          0         
143              8.2        5          0          0          0         
144              13         1.5        0          0          0         
145              12.5       1.5        0          0          0         
146              10.9       2.5        0          0          0         
147              9.4        3.6        0          0          0         
148              11.5       1.5        0          0          0         
149              8          4.5        0          0          0         
150              7.2        5          0          0          0         
151              6.2        5.7        0          0          0         
152              10         1.5        0          0          0         
153              5          6.4        0          0          0         
154              3.5        8.5        0          0          0         
155              3          8          0          0          0         
156              4          9          0          0          0         

[OUTFALLS]
;;Name           Elevation  Type       Stage Data       Gated    Route To        
;;-------------- ---------- ---------- ---------------- -------- ----------------
171              -11        FREE                        NO                       

[CONDUITS]
;;Name           From Node        To Node          Length     Roughness  InOffset   OutOffset  InitFlow   MaxFlow   
;;-------------- ---------------- ---------------- ---------- ---------- ---------- ---------- ---------- ----------
1                1                2                595        0.01       0          0          0          0         
2                5                4                230        0.01       0          0          0          0         
3                3                4                205        0.01       0          0          0          0         
4                4                6                145        0.01       0          0          0          0         
5                7                6                211        0.01       0          0          0          0         
6                8                6                218        0.01       0          0          0          0         
7                2                10               460        0.01       0          0          0          0         
8                6                9                189        0.01       0          0          0          0         
9                9                10               267        0.01       0          0          0          0         
10               11               12               330        0.01       0          0          0          0         
11               12               13               214        0.01       0          0          0          0         
12               13               14               313        0.01       0          0          0          0         
13               14               9                232        0.01       0          0          0          0         
14               15               16               177        0.01       0          0          0          0         
15               16               14               142        0.01       0          0          0          0         
16               17               16               253        0.01       0          0          0          0         
17               18               19               119        0.01       0          0          0          0         
18               19               16               260        0.01       0          0          0          0         
19               20               21               345        0.01       0          0          0          0         
20               22               23               137        0.01       0          0          0          0         
21               24               23               155        0.01       0          0          0          0         
22               25               26               107        0.01       0          0          0          0         
23               23               26               77         0.01       0          0          0          0         
24               26               28               251        0.01       0          0          0          0         
25               27               28               174        0.01       0          0          0          0         
26               28               29               334        0.01       0          0          0          0         
27               32               18               84         0.01       0          0          0          0         
28               21               30               208        0.01       0          0          0          0         
29               30               31               327        0.01       0          0          0          0         
30               38               37               61         0.01       0          0          0          0         
31               37               36               244        0.01       0          0          0          0         
32               35               36               156        0.01       0          0          0          0         
33               31               34               234        0.01       0          0          0          0         
34               33               34               297        0.01       0          0          0          0         
35               34               29               192        0.01       0          0          0          0         
36               39               40               410        0.01       0          0          0          0         
37               40               41               120        0.01       0          0          0          0         
38               41               42               79         0.01       0          0          0          0         
39               42               43               69         0.01       0          0          0          0         
40               43               44               115        0.01       0          0          0          0         
41               45               46               296        0.01       0          0          0          0         
42               46               44               290        0.01       0          0          0          0         
43               44               47               126        0.01       0          0          0          0         
44               48               46               261        0.01       0          0          0          0         
45               49               50               193        0.01       0          0          0          0         
46               50               47               102        0.01       0          0          0          0         
47               51               52               200        0.01       0          0          0          0         
48               52               53               67         0.01       0          0          0          0         
51               55               56               208        0.01       0          0          0          0         
52               56               52               173        0.01       0          0          0          0         
53               57               58               292        0.01       0          0          0          0         
54               62               60               56         0.01       0          0          0          0         
55               59               60               160        0.01       0          0          0          0         
56               61               60               193        0.01       0          0          0          0         
57               36               64               335        0.01       0          0          0          0         
58               63               64               134        0.01       0          0          0          0         
59               64               58               143        0.01       0          0          0          0         
60               58               65               456        0.01       0          0          0          0         
61               60               66               273        0.01       0          0          0          0         
62               66               65               122        0.01       0          0          0          0         
63               65               67               165        0.01       0          0          0          0         
64               68               67               179        0.01       0          0          0          0         
65               69               65               224        0.01       0          0          0          0         
66               70               72               283        0.01       0          0          0          0         
67               71               72               126        0.01       0          0          0          0         
68               72               73               233        0.01       0          0          0          0         
70               74               69               382        0.01       0          0          0          0         
71               75               76               99.6       0.01       0          0          0          0         
72               73               76               142        0.01       0          0          0          0         
73               76               69               116        0.01       0          0          0          0         
74               77               76               78         0.01       0          0          0          0         
75               78               79               299        0.01       0          0          0          0         
76               79               80               213        0.01       0          0          0          0         
77               80               81               286        0.01       0          0          0          0         
78               84               85               68         .01        0          0          0          0         
79               86               85               156        0.01       0          0          0          0         
80               85               79               292        0.01       0          0          0          0         
81               90               89               121        0.01       0          0          0          0         
82               91               89               69         0.01       0          0          0          0         
83               89               88               43         0.01       0          0          0          0         
84               88               80               99         0.01       0          0          0          0         
85               87               80               260        0.01       0          0          0          0         
86               92               93               133        0.01       0          0          0          0         
87               94               93               69         0.01       0          0          0          0         
88               93               95               354        0.01       0          0          0          0         
89               95               74               360        0.01       0          0          0          0         
90               96               97               43         0.01       0          0          0          0         
91               97               74               281        0.01       0          0          0          0         
92               98               99               135        0.01       0          0          0          0         
93               99               102              233        0.01       0          0          0          0         
94               102              100              345        0.01       0          0          0          0         
95               100              74               284        0.01       0          0          0          0         
96               101              102              157        0.01       0          0          0          0         
97               104              105              232        0.01       0          0          0          0         
98               103              105              166        0.01       0          0          0          0         
99               106              105              232        0.01       0          0          0          0         
100              105              108              249        0.01       0          0          0          0         
101              107              108              156        0.01       0          0          0          0         
102              109              110              223        0.01       0          0          0          0         
103              108              110              236        0.01       0          0          0          0         
104              110              111              236        0.01       0          0          0          0         
105              112              111              687        0.01       0          0          0          0         
106              113              114              126        0.01       0          0          0          0         
107              119              114              173        0.01       0          0          0          0         
108              114              115              113        0.01       0          0          0          0         
109              115              116              120        0.01       0          0          0          0         
110              116              117              263        0.01       0          0          0          0         
111              117              118              138        0.01       0          0          0          0         
112              111              117              228        0.01       0          0          0          0         
113              122              121              270        0.01       0          0          0          0         
114              121              115              602        0.01       0          0          0          0         
115              120              116              150        0.01       0          0          0          0         
116              123              124              333        0.01       0          0          0          0         
117              125              124              159        0.01       0          0          0          0         
118              124              126              88         0.01       0          0          0          0         
119              126              127              91         0.01       0          0          0          0         
120              127              128              88         0.01       0          0          0          0         
121              128              118              165        0.01       0          0          0          0         
122              129              128              106        0.01       0          0          0          0         
123              118              130              65         0.01       0          0          0          0         
124              131              132              345        0.01       0          0          0          0         
125              133              132              98         0.01       0          0          0          0         
126              132              134              220        0.01       0          0          0          0         
127              135              132              114        0.01       0          0          0          0         
128              136              137              170        0.01       0          0          0          0         
129              137              134              201        0.01       0          0          0          0         
130              134              95               193        0.01       0          0          0          0         