# OBS: Observation Utility file created on 3/27/2023 by ModelMuse version 5.1.1.20.
BEGIN OPTIONS
END OPTIONS

BEGIN CONTINUOUS FILEOUT green2010_v3.ghb.obs.csv
  sound   ghb SOUND
  inner   ghb INNER
  peconic ghb PECONIC
END CONTINUOUS
