# GHB: General-Head Boundary package file created on 3/27/2023 by ModelMuse version 5.1.1.20.
BEGIN OPTIONS
    AUXILIARY IFACE
    BOUNDNAMES
    SAVE_FLOWS
END OPTIONS

BEGIN DIMENSIONS
  MAXBOUND   735
END DIMENSIONS

BEGIN PERIOD      1
     1    27     1  0.000000000000E+000   2.499999999390E+004      0 'Sound'  # Data Set 6: Layer Row Column Bhead Cond IFACE boundname
     1    28     1  0.000000000000E+000   2.500000000000E+004      0 'Sound'  # Data Set 6: Layer Row Column Bhead Cond IFACE boundname
     1    29     1  0.000000000000E+000   2.499999999390E+004      0 'Sound'  # Data Set 6: Layer Row Column Bhead Cond IFACE boundname
     1    30     1  0.000000000000E+000   2.423195665894E+004      0 'Sound'  # Data Set 6: Layer Row Column Bhead Cond IFACE boundname
     1    26     2  0.000000000000E+000   2.500000000610E+004      0 'Sound'  # Data Set 6: Layer Row Column Bhead Cond IFACE boundname
     1    27     2  0.000000000000E+000   2.499999999390E+004      0 'Sound'  # Data Set 6: Layer Row Column Bhead Cond IFACE boundname
     1    28     2  0.000000000000E+000   2.499999999390E+004      0 'Sound'  # Data Set 6: Layer Row Column Bhead Cond IFACE boundname
     1    29     2  0.000000000000E+000   2.500000000610E+004      0 'Sound'  # Data Set 6: Layer Row Column Bhead Cond IFACE boundname
     1    30     2  0.000000000000E+000   1.311366322632E+004      0 'Sound'  # Data Set 6: Layer Row Column Bhead Cond IFACE boundname
     1    26     3  0.000000000000E+000   2.500000000610E+004      0 'Sound'  # Data Set 6: Layer Row Column Bhead Cond IFACE boundname
     1    27     3  0.000000000000E+000   2.500000000610E+004      0 'Sound'  # Data Set 6: Layer Row Column Bhead Cond IFACE boundname
     1    28     3  0.000000000000E+000   2.500000000610E+004      0 'Sound'  # Data Set 6: Layer Row Column Bhead Cond IFACE boundname
     1    29     3  0.000000000000E+000   2.499999999390E+004      0 'Sound'  # Data Set 6: Layer Row Column Bhead Cond IFACE boundname
     1    27     4  0.000000000000E+000   2.500000000000E+004      0 'Sound'  # Data Set 6: Layer Row Column Bhead Cond IFACE boundname
     1    28     4  0.000000000000E+000   2.499999999390E+004      0 'Sound'  # Data Set 6: Layer Row Column Bhead Cond IFACE boundname
     1    29     4  0.000000000000E+000   2.500000000000E+004      0 'Sound'  # Data Set 6: Layer Row Column Bhead Cond IFACE boundname
     1    30     4  0.000000000000E+000   1.713587783813E+004      0 'Sound'  # Data Set 6: Layer Row Column Bhead Cond IFACE boundname
     1    26     5  0.000000000000E+000   2.499999999390E+004      0 'Sound'  # Data Set 6: Layer Row Column Bhead Cond IFACE boundname
     1    27     5  0.000000000000E+000   2.500000000610E+004      0 'Sound'  # Data Set 6: Layer Row Column Bhead Cond IFACE boundname
     1    28     5  0.000000000000E+000   2.500000000610E+004      0 'Sound'  # Data Set 6: Layer Row Column Bhead Cond IFACE boundname
     1    29     5  0.000000000000E+000   2.499999999390E+004      0 'Sound'  # Data Set 6: Layer Row Column Bhead Cond IFACE boundname
     1    30     5  0.000000000000E+000   1.826456238403E+004      0 'Sound'  # Data Set 6: Layer Row Column Bhead Cond IFACE boundname
     1    26     6  0.000000000000E+000   2.500000001221E+004      0 'Sound'  # Data Set 6: Layer Row Column Bhead Cond IFACE boundname
     1    27     6  0.000000000000E+000   2.500000000000E+004      0 'Sound'  # Data Set 6: Layer Row Column Bhead Cond IFACE boundname
     1    28     6  0.000000000000E+000   2.499999999390E+004      0 'Sound'  # Data Set 6: Layer Row Column Bhead Cond IFACE boundname
     1    29     6  0.000000000000E+000   2.500000000000E+004      0 'Sound'  # Data Set 6: Layer Row Column Bhead Cond IFACE boundname
     1    26     7  0.000000000000E+000   2.500000000610E+004      0 'Sound'  # Data Set 6: Layer Row Column Bhead Cond IFACE boundname
     1    27     7  0.000000000000E+000   2.500000000000E+004      0 'Sound'  # Data Set 6: Layer Row Column Bhead Cond IFACE boundname
     1    28     7  0.000000000000E+000   2.499999999390E+004      0 'Sound'  # Data Set 6: Layer Row Column Bhead Cond IFACE boundname
     1    29     7  0.000000000000E+000   1.922764666748E+004      0 'Sound'  # Data Set 6: Layer Row Column Bhead Cond IFACE boundname
     1    26     8  0.000000000000E+000   2.499999999390E+004      0 'Sound'  # Data Set 6: Layer Row Column Bhead Cond IFACE boundname
     1    27     8  0.000000000000E+000   2.500000000610E+004      0 'Sound'  # Data Set 6: Layer Row Column Bhead Cond IFACE boundname
     1    28     8  0.000000000000E+000   2.500000000000E+004      0 'Sound'  # Data Set 6: Layer Row Column Bhead Cond IFACE boundname
     1    26     9  0.000000000000E+000   2.499999999390E+004      0 'Sound'  # Data Set 6: Layer Row Column Bhead Cond IFACE boundname
     1    27     9  0.000000000000E+000   2.500000000610E+004      0 'Sound'  # Data Set 6: Layer Row Column Bhead Cond IFACE boundname
     1    28     9  0.000000000000E+000   2.500000000610E+004      0 'Sound'  # Data Set 6: Layer Row Column Bhead Cond IFACE boundname
     1    29     9  0.000000000000E+000   1.734607072754E+004      0 'Sound'  # Data Set 6: Layer Row Column Bhead Cond IFACE boundname
     1    25    10  0.000000000000E+000   2.499999999390E+004      0 'Sound'  # Data Set 6: Layer Row Column Bhead Cond IFACE boundname
     1    26    10  0.000000000000E+000   2.500000000000E+004      0 'Sound'  # Data Set 6: Layer Row Column Bhead Cond IFACE boundname
     1    27    10  0.000000000000E+000   2.499999998779E+004      0 'Sound'  # Data Set 6: Layer Row Column Bhead Cond IFACE boundname
     1    28    10  0.000000000000E+000   2.500000000000E+004      0 'Sound'  # Data Set 6: Layer Row Column Bhead Cond IFACE boundname
     1    29    10  0.000000000000E+000   1.770727834473E+004      0 'Sound'  # Data Set 6: Layer Row Column Bhead Cond IFACE boundname
     1    25    11  0.000000000000E+000   2.500000000610E+004      0 'Sound'  # Data Set 6: Layer Row Column Bhead Cond IFACE boundname
     1    26    11  0.000000000000E+000   2.499999999390E+004      0 'Sound'  # Data Set 6: Layer Row Column Bhead Cond IFACE boundname
     1    27    11  0.000000000000E+000   2.500000000610E+004      0 'Sound'  # Data Set 6: Layer Row Column Bhead Cond IFACE boundname
     1    28    11  0.000000000000E+000   2.500000000610E+004      0 'Sound'  # Data Set 6: Layer Row Column Bhead Cond IFACE boundname
     1    24    12  0.000000000000E+000   2.500000000000E+004      0 'Sound'  # Data Set 6: Layer Row Column Bhead Cond IFACE boundname
     1    25    12  0.000000000000E+000   2.500000001221E+004      0 'Sound'  # Data Set 6: Layer Row Column Bhead Cond IFACE boundname
     1    26    12  0.000000000000E+000   2.499999998779E+004      0 'Sound'  # Data Set 6: Layer Row Column Bhead Cond IFACE boundname
     1    27    12  0.000000000000E+000   2.500000001221E+004      0 'Sound'  # Data Set 6: Layer Row Column Bhead Cond IFACE boundname
     1    28    12  0.000000000000E+000   2.400592053833E+004      0 'Sound'  # Data Set 6: Layer Row Column Bhead Cond IFACE boundname
     1    23    13  0.000000000000E+000   2.500000000000E+004      0 'Sound'  # Data Set 6: Layer Row Column Bhead Cond IFACE boundname
     1    24    13  0.000000000000E+000   2.499999999390E+004      0 'Sound'  # Data Set 6: Layer Row Column Bhead Cond IFACE boundname
     1    25    13  0.000000000000E+000   2.499999999390E+004      0 'Sound'  # Data Set 6: Layer Row Column Bhead Cond IFACE boundname
     1    26    13  0.000000000000E+000   2.500000001221E+004      0 'Sound'  # Data Set 6: Layer Row Column Bhead Cond IFACE boundname
     1    27    13  0.000000000000E+000   2.500000000000E+004      0 'Sound'  # Data Set 6: Layer Row Column Bhead Cond IFACE boundname
     1    21    14  0.000000000000E+000   2.500000001221E+004      0 'Sound'  # Data Set 6: Layer Row Column Bhead Cond IFACE boundname
     1    22    14  0.000000000000E+000   2.500000000000E+004      0 'Sound'  # Data Set 6: Layer Row Column Bhead Cond IFACE boundname
     1    23    14  0.000000000000E+000   2.499999999390E+004      0 'Sound'  # Data Set 6: Layer Row Column Bhead Cond IFACE boundname
     1    24    14  0.000000000000E+000   2.499999999390E+004      0 'Sound'  # Data Set 6: Layer Row Column Bhead Cond IFACE boundname
     1    25    14  0.000000000000E+000   2.499999999390E+004      0 'Sound'  # Data Set 6: Layer Row Column Bhead Cond IFACE boundname
     1    26    14  0.000000000000E+000   2.500000000610E+004      0 'Sound'  # Data Set 6: Layer Row Column Bhead Cond IFACE boundname
     1    27    14  0.000000000000E+000   2.252539525757E+004      0 'Sound'  # Data Set 6: Layer Row Column Bhead Cond IFACE boundname
     1    19    15  0.000000000000E+000   2.499999999390E+004      0 'Sound'  # Data Set 6: Layer Row Column Bhead Cond IFACE boundname
     1    20    15  0.000000000000E+000   2.499999999390E+004      0 'Sound'  # Data Set 6: Layer Row Column Bhead Cond IFACE boundname
     1    21    15  0.000000000000E+000   2.500000000000E+004      0 'Sound'  # Data Set 6: Layer Row Column Bhead Cond IFACE boundname
     1    22    15  0.000000000000E+000   2.499999999390E+004      0 'Sound'  # Data Set 6: Layer Row Column Bhead Cond IFACE boundname
     1    23    15  0.000000000000E+000   2.500000000000E+004      0 'Sound'  # Data Set 6: Layer Row Column Bhead Cond IFACE boundname
     1    24    15  0.000000000000E+000   2.500000000610E+004      0 'Sound'  # Data Set 6: Layer Row Column Bhead Cond IFACE boundname
     1    25    15  0.000000000000E+000   2.500000001221E+004      0 'Sound'  # Data Set 6: Layer Row Column Bhead Cond IFACE boundname
     1    26    15  0.000000000000E+000   2.314276558838E+004      0 'Sound'  # Data Set 6: Layer Row Column Bhead Cond IFACE boundname
     1    19    16  0.000000000000E+000   2.500000000610E+004      0 'Sound'  # Data Set 6: Layer Row Column Bhead Cond IFACE boundname
     1    20    16  0.000000000000E+000   2.500000000610E+004      0 'Sound'  # Data Set 6: Layer Row Column Bhead Cond IFACE boundname
     1    21    16  0.000000000000E+000   2.500000000000E+004      0 'Sound'  # Data Set 6: Layer Row Column Bhead Cond IFACE boundname
     1    22    16  0.000000000000E+000   2.500000000610E+004      0 'Sound'  # Data Set 6: Layer Row Column Bhead Cond IFACE boundname
     1    23    16  0.000000000000E+000   2.499999999390E+004      0 'Sound'  # Data Set 6: Layer Row Column Bhead Cond IFACE boundname
     1    24    16  0.000000000000E+000   2.500000000000E+004      0 'Sound'  # Data Set 6: Layer Row Column Bhead Cond IFACE boundname
     1    25    16  0.000000000000E+000   2.498509129639E+004      0 'Sound'  # Data Set 6: Layer Row Column Bhead Cond IFACE boundname
     1    19    17  0.000000000000E+000   2.500000000000E+004      0 'Sound'  # Data Set 6: Layer Row Column Bhead Cond IFACE boundname
     1    20    17  0.000000000000E+000   2.500000000000E+004      0 'Sound'  # Data Set 6: Layer Row Column Bhead Cond IFACE boundname
     1    21    17  0.000000000000E+000   2.500000000000E+004      0 'Sound'  # Data Set 6: Layer Row Column Bhead Cond IFACE boundname
     1    22    17  0.000000000000E+000   2.499999999390E+004      0 'Sound'  # Data Set 6: Layer Row Column Bhead Cond IFACE boundname
     1    23    17  0.000000000000E+000   2.500000000610E+004      0 'Sound'  # Data Set 6: Layer Row Column Bhead Cond IFACE boundname
     1    24    17  0.000000000000E+000   2.500000000000E+004      0 'Sound'  # Data Set 6: Layer Row Column Bhead Cond IFACE boundname
     1    25    17  0.000000000000E+000   1.331824786377E+004      0 'Sound'  # Data Set 6: Layer Row Column Bhead Cond IFACE boundname
     1    18    18  0.000000000000E+000   2.500000000000E+004      0 'Sound'  # Data Set 6: Layer Row Column Bhead Cond IFACE boundname
     1    19    18  0.000000000000E+000   2.500000000000E+004      0 'Sound'  # Data Set 6: Layer Row Column Bhead Cond IFACE boundname
     1    20    18  0.000000000000E+000   2.500000000000E+004      0 'Sound'  # Data Set 6: Layer Row Column Bhead Cond IFACE boundname
     1    21    18  0.000000000000E+000   2.499999999390E+004      0 'Sound'  # Data Set 6: Layer Row Column Bhead Cond IFACE boundname
     1    22    18  0.000000000000E+000   2.500000000610E+004      0 'Sound'  # Data Set 6: Layer Row Column Bhead Cond IFACE boundname
     1    23    18  0.000000000000E+000   2.499999999390E+004      0 'Sound'  # Data Set 6: Layer Row Column Bhead Cond IFACE boundname
     1    24    18  0.000000000000E+000   1.683397240601E+004      0 'Sound'  # Data Set 6: Layer Row Column Bhead Cond IFACE boundname
     1    16    19  0.000000000000E+000   2.500000000000E+004      0 'Sound'  # Data Set 6: Layer Row Column Bhead Cond IFACE boundname
     1    17    19  0.000000000000E+000   2.500000000000E+004      0 'Sound'  # Data Set 6: Layer Row Column Bhead Cond IFACE boundname
     1    18    19  0.000000000000E+000   2.500000000000E+004      0 'Sound'  # Data Set 6: Layer Row Column Bhead Cond IFACE boundname
     1    19    19  0.000000000000E+000   2.500000000000E+004      0 'Sound'  # Data Set 6: Layer Row Column Bhead Cond IFACE boundname
     1    20    19  0.000000000000E+000   2.500000000000E+004      0 'Sound'  # Data Set 6: Layer Row Column Bhead Cond IFACE boundname
     1    21    19  0.000000000000E+000   2.500000000000E+004      0 'Sound'  # Data Set 6: Layer Row Column Bhead Cond IFACE boundname
     1    22    19  0.000000000000E+000   2.354618864746E+004      0 'Sound'  # Data Set 6: Layer Row Column Bhead Cond IFACE boundname
     1    16    20  0.000000000000E+000   2.499999999390E+004      0 'Sound'  # Data Set 6: Layer Row Column Bhead Cond IFACE boundname
     1    17    20  0.000000000000E+000   2.500000000610E+004      0 'Sound'  # Data Set 6: Layer Row Column Bhead Cond IFACE boundname
     1    18    20  0.000000000000E+000   2.500000000610E+004      0 'Sound'  # Data Set 6: Layer Row Column Bhead Cond IFACE boundname
     1    19    20  0.000000000000E+000   2.499999998779E+004      0 'Sound'  # Data Set 6: Layer Row Column Bhead Cond IFACE boundname
     1    20    20  0.000000000000E+000   2.500000000610E+004      0 'Sound'  # Data Set 6: Layer Row Column Bhead Cond IFACE boundname
     1    21    20  0.000000000000E+000   2.419734063110E+004      0 'Sound'  # Data Set 6: Layer Row Column Bhead Cond IFACE boundname
     1    15    21  0.000000000000E+000   2.500000000610E+004      0 'Sound'  # Data Set 6: Layer Row Column Bhead Cond IFACE boundname
     1    16    21  0.000000000000E+000   2.499999999390E+004      0 'Sound'  # Data Set 6: Layer Row Column Bhead Cond IFACE boundname
     1    17    21  0.000000000000E+000   2.500000000610E+004      0 'Sound'  # Data Set 6: Layer Row Column Bhead Cond IFACE boundname
     1    18    21  0.000000000000E+000   2.500000000000E+004      0 'Sound'  # Data Set 6: Layer Row Column Bhead Cond IFACE boundname
     1    19    21  0.000000000000E+000   2.500000000000E+004      0 'Sound'  # Data Set 6: Layer Row Column Bhead Cond IFACE boundname
     1    20    21  0.000000000000E+000   2.013538352051E+004      0 'Sound'  # Data Set 6: Layer Row Column Bhead Cond IFACE boundname
     1    15    22  0.000000000000E+000   2.500000000000E+004      0 'Sound'  # Data Set 6: Layer Row Column Bhead Cond IFACE boundname
     1    16    22  0.000000000000E+000   2.499999998779E+004      0 'Sound'  # Data Set 6: Layer Row Column Bhead Cond IFACE boundname
     1    17    22  0.000000000000E+000   2.500000000000E+004      0 'Sound'  # Data Set 6: Layer Row Column Bhead Cond IFACE boundname
     1    18    22  0.000000000000E+000   2.487394528198E+004      0 'Sound'  # Data Set 6: Layer Row Column Bhead Cond IFACE boundname
     1    14    23  0.000000000000E+000   2.499999999390E+004      0 'Sound'  # Data Set 6: Layer Row Column Bhead Cond IFACE boundname
     1    15    23  0.000000000000E+000   2.500000000000E+004      0 'Sound'  # Data Set 6: Layer Row Column Bhead Cond IFACE boundname
     1    16    23  0.000000000000E+000   2.500000000000E+004      0 'Sound'  # Data Set 6: Layer Row Column Bhead Cond IFACE boundname
     1    17    23  0.000000000000E+000   2.499999999390E+004      0 'Sound'  # Data Set 6: Layer Row Column Bhead Cond IFACE boundname
     1    18    23  0.000000000000E+000   2.175643702393E+004      0 'Sound'  # Data Set 6: Layer Row Column Bhead Cond IFACE boundname
     1    14    24  0.000000000000E+000   2.499999999390E+004      0 'Sound'  # Data Set 6: Layer Row Column Bhead Cond IFACE boundname
     1    15    24  0.000000000000E+000   2.500000000610E+004      0 'Sound'  # Data Set 6: Layer Row Column Bhead Cond IFACE boundname
     1    16    24  0.000000000000E+000   2.500000000000E+004      0 'Sound'  # Data Set 6: Layer Row Column Bhead Cond IFACE boundname
     1    17    24  0.000000000000E+000   2.500000000000E+004      0 'Sound'  # Data Set 6: Layer Row Column Bhead Cond IFACE boundname
     1    14    25  0.000000000000E+000   2.500000000000E+004      0 'Sound'  # Data Set 6: Layer Row Column Bhead Cond IFACE boundname
     1    15    25  0.000000000000E+000   2.500000000000E+004      0 'Sound'  # Data Set 6: Layer Row Column Bhead Cond IFACE boundname
     1    16    25  0.000000000000E+000   2.500000000000E+004      0 'Sound'  # Data Set 6: Layer Row Column Bhead Cond IFACE boundname
     1    17    25  0.000000000000E+000   2.499999999390E+004      0 'Sound'  # Data Set 6: Layer Row Column Bhead Cond IFACE boundname
     1    13    26  0.000000000000E+000   2.500000000610E+004      0 'Sound'  # Data Set 6: Layer Row Column Bhead Cond IFACE boundname
     1    14    26  0.000000000000E+000   2.500000000610E+004      0 'Sound'  # Data Set 6: Layer Row Column Bhead Cond IFACE boundname
     1    15    26  0.000000000000E+000   2.500000000610E+004      0 'Sound'  # Data Set 6: Layer Row Column Bhead Cond IFACE boundname
     1    16    26  0.000000000000E+000   2.499999999390E+004      0 'Sound'  # Data Set 6: Layer Row Column Bhead Cond IFACE boundname
     1    17    26  0.000000000000E+000   1.639068847046E+004      0 'Sound'  # Data Set 6: Layer Row Column Bhead Cond IFACE boundname
     1    13    27  0.000000000000E+000   2.499999999390E+004      0 'Sound'  # Data Set 6: Layer Row Column Bhead Cond IFACE boundname
     1    14    27  0.000000000000E+000   2.500000000000E+004      0 'Sound'  # Data Set 6: Layer Row Column Bhead Cond IFACE boundname
     1    15    27  0.000000000000E+000   2.499999999390E+004      0 'Sound'  # Data Set 6: Layer Row Column Bhead Cond IFACE boundname
     1    16    27  0.000000000000E+000   2.500000000610E+004      0 'Sound'  # Data Set 6: Layer Row Column Bhead Cond IFACE boundname
     1    13    28  0.000000000000E+000   2.500000000610E+004      0 'Sound'  # Data Set 6: Layer Row Column Bhead Cond IFACE boundname
     1    14    28  0.000000000000E+000   2.500000000610E+004      0 'Sound'  # Data Set 6: Layer Row Column Bhead Cond IFACE boundname
     1    15    28  0.000000000000E+000   2.499999999390E+004      0 'Sound'  # Data Set 6: Layer Row Column Bhead Cond IFACE boundname
     1    16    28  0.000000000000E+000   2.500000000610E+004      0 'Sound'  # Data Set 6: Layer Row Column Bhead Cond IFACE boundname
     1    17    28  0.000000000000E+000   1.380578959961E+004      0 'Sound'  # Data Set 6: Layer Row Column Bhead Cond IFACE boundname
     1    13    29  0.000000000000E+000   2.500000000000E+004      0 'Sound'  # Data Set 6: Layer Row Column Bhead Cond IFACE boundname
     1    14    29  0.000000000000E+000   2.499999999390E+004      0 'Sound'  # Data Set 6: Layer Row Column Bhead Cond IFACE boundname
     1    15    29  0.000000000000E+000   2.499999999390E+004      0 'Sound'  # Data Set 6: Layer Row Column Bhead Cond IFACE boundname
     1    16    29  0.000000000000E+000   2.499999999390E+004      0 'Sound'  # Data Set 6: Layer Row Column Bhead Cond IFACE boundname
     1    17    29  0.000000000000E+000   1.221568421631E+004      0 'Sound'  # Data Set 6: Layer Row Column Bhead Cond IFACE boundname
     1    13    30  0.000000000000E+000   2.500000000000E+004      0 'Sound'  # Data Set 6: Layer Row Column Bhead Cond IFACE boundname
     1    14    30  0.000000000000E+000   2.500000000000E+004      0 'Sound'  # Data Set 6: Layer Row Column Bhead Cond IFACE boundname
     1    15    30  0.000000000000E+000   2.499999999390E+004      0 'Sound'  # Data Set 6: Layer Row Column Bhead Cond IFACE boundname
     1    16    30  0.000000000000E+000   2.396920656738E+004      0 'Sound'  # Data Set 6: Layer Row Column Bhead Cond IFACE boundname
     1    12    31  0.000000000000E+000   2.499999999390E+004      0 'Sound'  # Data Set 6: Layer Row Column Bhead Cond IFACE boundname
     1    13    31  0.000000000000E+000   2.500000000610E+004      0 'Sound'  # Data Set 6: Layer Row Column Bhead Cond IFACE boundname
     1    14    31  0.000000000000E+000   2.500000000610E+004      0 'Sound'  # Data Set 6: Layer Row Column Bhead Cond IFACE boundname
     1    15    31  0.000000000000E+000   2.500000000610E+004      0 'Sound'  # Data Set 6: Layer Row Column Bhead Cond IFACE boundname
     1    16    31  0.000000000000E+000   1.692517979736E+004      0 'Sound'  # Data Set 6: Layer Row Column Bhead Cond IFACE boundname
     1    12    32  0.000000000000E+000   2.500000000000E+004      0 'Sound'  # Data Set 6: Layer Row Column Bhead Cond IFACE boundname
     1    13    32  0.000000000000E+000   2.500000000000E+004      0 'Sound'  # Data Set 6: Layer Row Column Bhead Cond IFACE boundname
     1    14    32  0.000000000000E+000   2.499999999390E+004      0 'Sound'  # Data Set 6: Layer Row Column Bhead Cond IFACE boundname
     1    15    32  0.000000000000E+000   2.461947614746E+004      0 'Sound'  # Data Set 6: Layer Row Column Bhead Cond IFACE boundname
     1    11    33  0.000000000000E+000   2.500000000000E+004      0 'Sound'  # Data Set 6: Layer Row Column Bhead Cond IFACE boundname
     1    12    33  0.000000000000E+000   2.500000000000E+004      0 'Sound'  # Data Set 6: Layer Row Column Bhead Cond IFACE boundname
     1    13    33  0.000000000000E+000   2.500000000000E+004      0 'Sound'  # Data Set 6: Layer Row Column Bhead Cond IFACE boundname
     1    14    33  0.000000000000E+000   2.500000001221E+004      0 'Sound'  # Data Set 6: Layer Row Column Bhead Cond IFACE boundname
     1    10    34  0.000000000000E+000   2.500000000610E+004      0 'Sound'  # Data Set 6: Layer Row Column Bhead Cond IFACE boundname
     1    11    34  0.000000000000E+000   2.499999999390E+004      0 'Sound'  # Data Set 6: Layer Row Column Bhead Cond IFACE boundname
     1    12    34  0.000000000000E+000   2.500000000000E+004      0 'Sound'  # Data Set 6: Layer Row Column Bhead Cond IFACE boundname
     1    13    34  0.000000000000E+000   2.500000001221E+004      0 'Sound'  # Data Set 6: Layer Row Column Bhead Cond IFACE boundname
     1    14    34  0.000000000000E+000   2.500000000000E+004      0 'Sound'  # Data Set 6: Layer Row Column Bhead Cond IFACE boundname
     1     9    35  0.000000000000E+000   2.500000000610E+004      0 'Sound'  # Data Set 6: Layer Row Column Bhead Cond IFACE boundname
     1    10    35  0.000000000000E+000   2.500000000000E+004      0 'Sound'  # Data Set 6: Layer Row Column Bhead Cond IFACE boundname
     1    11    35  0.000000000000E+000   2.500000000000E+004      0 'Sound'  # Data Set 6: Layer Row Column Bhead Cond IFACE boundname
     1    12    35  0.000000000000E+000   2.499999998779E+004      0 'Sound'  # Data Set 6: Layer Row Column Bhead Cond IFACE boundname
     1    13    35  0.000000000000E+000   2.500000000610E+004      0 'Sound'  # Data Set 6: Layer Row Column Bhead Cond IFACE boundname
     1    14    35  0.000000000000E+000   2.027890654297E+004      0 'Sound'  # Data Set 6: Layer Row Column Bhead Cond IFACE boundname
     1     8    36  0.000000000000E+000   2.500000000000E+004      0 'Sound'  # Data Set 6: Layer Row Column Bhead Cond IFACE boundname
     1     9    36  0.000000000000E+000   2.499999999390E+004      0 'Sound'  # Data Set 6: Layer Row Column Bhead Cond IFACE boundname
     1    10    36  0.000000000000E+000   2.500000000610E+004      0 'Sound'  # Data Set 6: Layer Row Column Bhead Cond IFACE boundname
     1    11    36  0.000000000000E+000   2.500000000000E+004      0 'Sound'  # Data Set 6: Layer Row Column Bhead Cond IFACE boundname
     1    12    36  0.000000000000E+000   2.500000000610E+004      0 'Sound'  # Data Set 6: Layer Row Column Bhead Cond IFACE boundname
     1    13    36  0.000000000000E+000   2.051386326904E+004      0 'Sound'  # Data Set 6: Layer Row Column Bhead Cond IFACE boundname
     1     7    37  0.000000000000E+000   2.500000001221E+004      0 'Sound'  # Data Set 6: Layer Row Column Bhead Cond IFACE boundname
     1     8    37  0.000000000000E+000   2.500000000000E+004      0 'Sound'  # Data Set 6: Layer Row Column Bhead Cond IFACE boundname
     1     9    37  0.000000000000E+000   2.500000000610E+004      0 'Sound'  # Data Set 6: Layer Row Column Bhead Cond IFACE boundname
     1    10    37  0.000000000000E+000   2.500000000000E+004      0 'Sound'  # Data Set 6: Layer Row Column Bhead Cond IFACE boundname
     1    11    37  0.000000000000E+000   2.500000000000E+004      0 'Sound'  # Data Set 6: Layer Row Column Bhead Cond IFACE boundname
     1    12    37  0.000000000000E+000   1.722214964600E+004      0 'Sound'  # Data Set 6: Layer Row Column Bhead Cond IFACE boundname
     1     6    38  0.000000000000E+000   2.500000001221E+004      0 'Sound'  # Data Set 6: Layer Row Column Bhead Cond IFACE boundname
     1     7    38  0.000000000000E+000   2.499999999390E+004      0 'Sound'  # Data Set 6: Layer Row Column Bhead Cond IFACE boundname
     1     8    38  0.000000000000E+000   2.499999998779E+004      0 'Sound'  # Data Set 6: Layer Row Column Bhead Cond IFACE boundname
     1     9    38  0.000000000000E+000   2.500000000000E+004      0 'Sound'  # Data Set 6: Layer Row Column Bhead Cond IFACE boundname
     1    10    38  0.000000000000E+000   2.500000000000E+004      0 'Sound'  # Data Set 6: Layer Row Column Bhead Cond IFACE boundname
     1    11    38  0.000000000000E+000   2.074331886597E+004      0 'Sound'  # Data Set 6: Layer Row Column Bhead Cond IFACE boundname
     1     4    39  0.000000000000E+000   2.499999999390E+004      0 'Sound'  # Data Set 6: Layer Row Column Bhead Cond IFACE boundname
     1     5    39  0.000000000000E+000   2.500000000610E+004      0 'Sound'  # Data Set 6: Layer Row Column Bhead Cond IFACE boundname
     1     6    39  0.000000000000E+000   2.499999999390E+004      0 'Sound'  # Data Set 6: Layer Row Column Bhead Cond IFACE boundname
     1     7    39  0.000000000000E+000   2.500000001221E+004      0 'Sound'  # Data Set 6: Layer Row Column Bhead Cond IFACE boundname
     1     8    39  0.000000000000E+000   2.500000000610E+004      0 'Sound'  # Data Set 6: Layer Row Column Bhead Cond IFACE boundname
     1     9    39  0.000000000000E+000   2.500000000610E+004      0 'Sound'  # Data Set 6: Layer Row Column Bhead Cond IFACE boundname
     1    10    39  0.000000000000E+000   2.481277769775E+004      0 'Sound'  # Data Set 6: Layer Row Column Bhead Cond IFACE boundname
     1     3    40  0.000000000000E+000   2.500000000000E+004      0 'Sound'  # Data Set 6: Layer Row Column Bhead Cond IFACE boundname
     1     4    40  0.000000000000E+000   2.500000000610E+004      0 'Sound'  # Data Set 6: Layer Row Column Bhead Cond IFACE boundname
     1     5    40  0.000000000000E+000   2.499999999390E+004      0 'Sound'  # Data Set 6: Layer Row Column Bhead Cond IFACE boundname
     1     6    40  0.000000000000E+000   2.500000000000E+004      0 'Sound'  # Data Set 6: Layer Row Column Bhead Cond IFACE boundname
     1     7    40  0.000000000000E+000   2.499999999390E+004      0 'Sound'  # Data Set 6: Layer Row Column Bhead Cond IFACE boundname
     1     8    40  0.000000000000E+000   2.500000000000E+004      0 'Sound'  # Data Set 6: Layer Row Column Bhead Cond IFACE boundname
     1     9    40  0.000000000000E+000   2.291120786743E+004      0 'Sound'  # Data Set 6: Layer Row Column Bhead Cond IFACE boundname
     1     3    41  0.000000000000E+000   2.500000000000E+004      0 'Sound'  # Data Set 6: Layer Row Column Bhead Cond IFACE boundname
     1     4    41  0.000000000000E+000   2.500000000000E+004      0 'Sound'  # Data Set 6: Layer Row Column Bhead Cond IFACE boundname
     1     5    41  0.000000000000E+000   2.500000000610E+004      0 'Sound'  # Data Set 6: Layer Row Column Bhead Cond IFACE boundname
     1     6    41  0.000000000000E+000   2.500000000000E+004      0 'Sound'  # Data Set 6: Layer Row Column Bhead Cond IFACE boundname
     1     7    41  0.000000000000E+000   2.390118262939E+004      0 'Sound'  # Data Set 6: Layer Row Column Bhead Cond IFACE boundname
     1     8    41  0.000000000000E+000   1.287535142212E+004      0 'Sound'  # Data Set 6: Layer Row Column Bhead Cond IFACE boundname
     1     2    42  0.000000000000E+000   2.500000000000E+004      0 'Sound'  # Data Set 6: Layer Row Column Bhead Cond IFACE boundname
     1     3    42  0.000000000000E+000   2.500000000610E+004      0 'Sound'  # Data Set 6: Layer Row Column Bhead Cond IFACE boundname
     1     4    42  0.000000000000E+000   2.500000000000E+004      0 'Sound'  # Data Set 6: Layer Row Column Bhead Cond IFACE boundname
     1     5    42  0.000000000000E+000   2.499999999390E+004      0 'Sound'  # Data Set 6: Layer Row Column Bhead Cond IFACE boundname