# TDIS file created on 3/27/2023 by ModelMuse version 5.1.1.20.

BEGIN OPTIONS
  TIME_UNITS days
END OPTIONS

BEGIN DIMENSIONS
  NPER   365
END DIMENSIONS

BEGIN PERIODDATA
    1.000000000000E+000      1  1.000000000000E+000  # perlen nstp tsmult, Stress period      1 Time =  1.826000000000E+003  -  1.827000000000E+003 
    1.000000000000E+000      1  1.000000000000E+000  # perlen nstp tsmult, Stress period      2 Time =  1.827000000000E+003  -  1.828000000000E+003 
    1.000000000000E+000      1  1.000000000000E+000  # perlen nstp tsmult, Stress period      3 Time =  1.828000000000E+003  -  1.829000000000E+003 
    1.000000000000E+000      1  1.000000000000E+000  # perlen nstp tsmult, Stress period      4 Time =  1.829000000000E+003  -  1.830000000000E+003 
    1.000000000000E+000      1  1.000000000000E+000  # perlen nstp tsmult, Stress period      5 Time =  1.830000000000E+003  -  1.831000000000E+003 
    1.000000000000E+000      1  1.000000000000E+000  # perlen nstp tsmult, Stress period      6 Time =  1.831000000000E+003  -  1.832000000000E+003 
    1.000000000000E+000      1  1.000000000000E+000  # perlen nstp tsmult, Stress period      7 Time =  1.832000000000E+003  -  1.833000000000E+003 
    1.000000000000E+000      1  1.000000000000E+000  # perlen nstp tsmult, Stress period      8 Time =  1.833000000000E+003  -  1.834000000000E+003 
    1.000000000000E+000      1  1.000000000000E+000  # perlen nstp tsmult, Stress period      9 Time =  1.834000000000E+003  -  1.835000000000E+003 
    1.000000000000E+000      1  1.000000000000E+000  # perlen nstp tsmult, Stress period     10 Time =  1.835000000000E+003  -  1.836000000000E+003 
    1.000000000000E+000      1  1.000000000000E+000  # perlen nstp tsmult, Stress period     11 Time =  1.836000000000E+003  -  1.837000000000E+003 
    1.000000000000E+000      1  1.000000000000E+000  # perlen nstp tsmult, Stress period     12 Time =  1.837000000000E+003  -  1.838000000000E+003 
    1.000000000000E+000      1  1.000000000000E+000  # perlen nstp tsmult, Stress period     13 Time =  1.838000000000E+003  -  1.839000000000E+003 
    1.000000000000E+000      1  1.000000000000E+000  # perlen nstp tsmult, Stress period     14 Time =  1.839000000000E+003  -  1.840000000000E+003 
    1.000000000000E+000      1  1.000000000000E+000  # perlen nstp tsmult, Stress period     15 Time =  1.840000000000E+003  -  1.841000000000E+003 
    1.000000000000E+000      1  1.000000000000E+000  # perlen nstp tsmult, Stress period     16 Time =  1.841000000000E+003  -  1.842000000000E+003 
    1.000000000000E+000      1  1.000000000000E+000  # perlen nstp tsmult, Stress period     17 Time =  1.842000000000E+003  -  1.843000000000E+003 
    1.000000000000E+000      1  1.000000000000E+000  # perlen nstp tsmult, Stress period     18 Time =  1.843000000000E+003  -  1.844000000000E+003 
    1.000000000000E+000      1  1.000000000000E+000  # perlen nstp tsmult, Stress period     19 Time =  1.844000000000E+003  -  1.845000000000E+003 
    1.000000000000E+000      1  1.000000000000E+000  # perlen nstp tsmult, Stress period     20 Time =  1.845000000000E+003  -  1.846000000000E+003 
    1.000000000000E+000      1  1.000000000000E+000  # perlen nstp tsmult, Stress period     21 Time =  1.846000000000E+003  -  1.847000000000E+003 
    1.000000000000E+000      1  1.000000000000E+000  # perlen nstp tsmult, Stress period     22 Time =  1.847000000000E+003  -  1.848000000000E+003 
    1.000000000000E+000      1  1.000000000000E+000  # perlen nstp tsmult, Stress period     23 Time =  1.848000000000E+003  -  1.849000000000E+003 
    1.000000000000E+000      1  1.000000000000E+000  # perlen nstp tsmult, Stress period     24 Time =  1.849000000000E+003  -  1.850000000000E+003 
    1.000000000000E+000      1  1.000000000000E+000  # perlen nstp tsmult, Stress period     25 Time =  1.850000000000E+003  -  1.851000000000E+003 
    1.000000000000E+000      1  1.000000000000E+000  # perlen nstp tsmult, Stress period     26 Time =  1.851000000000E+003  -  1.852000000000E+003 
    1.000000000000E+000      1  1.000000000000E+000  # perlen nstp tsmult, Stress period     27 Time =  1.852000000000E+003  -  1.853000000000E+003 
    1.000000000000E+000      1  1.000000000000E+000  # perlen nstp tsmult, Stress period     28 Time =  1.853000000000E+003  -  1.854000000000E+003 
    1.000000000000E+000      1  1.000000000000E+000  # perlen nstp tsmult, Stress period     29 Time =  1.854000000000E+003  -  1.855000000000E+003 
    1.000000000000E+000      1  1.000000000000E+000  # perlen nstp tsmult, Stress period     30 Time =  1.855000000000E+003  -  1.856000000000E+003 
    1.000000000000E+000      1  1.000000000000E+000  # perlen nstp tsmult, Stress period     31 Time =  1.856000000000E+003  -  1.857000000000E+003 
    1.000000000000E+000      1  1.000000000000E+000  # perlen nstp tsmult, Stress period     32 Time =  1.857000000000E+003  -  1.858000000000E+003 
    1.000000000000E+000      1  1.000000000000E+000  # perlen nstp tsmult, Stress period     33 Time =  1.858000000000E+003  -  1.859000000000E+003 
    1.000000000000E+000      1  1.000000000000E+000  # perlen nstp tsmult, Stress period     34 Time =  1.859000000000E+003  -  1.860000000000E+003 
    1.000000000000E+000      1  1.000000000000E+000  # perlen nstp tsmult, Stress period     35 Time =  1.860000000000E+003  -  1.861000000000E+003 
    1.000000000000E+000      1  1.000000000000E+000  # perlen nstp tsmult, Stress period     36 Time =  1.861000000000E+003  -  1.862000000000E+003 
    1.000000000000E+000      1  1.000000000000E+000  # perlen nstp tsmult, Stress period     37 Time =  1.862000000000E+003  -  1.863000000000E+003 
    1.000000000000E+000      1  1.000000000000E+000  # perlen nstp tsmult, Stress period     38 Time =  1.863000000000E+003  -  1.864000000000E+003 
    1.000000000000E+000      1  1.000000000000E+000  # perlen nstp tsmult, Stress period     39 Time =  1.864000000000E+003  -  1.865000000000E+003 
    1.000000000000E+000      1  1.000000000000E+000  # perlen nstp tsmult, Stress period     40 Time =  1.865000000000E+003  -  1.866000000000E+003 
    1.000000000000E+000      1  1.000000000000E+000  # perlen nstp tsmult, Stress period     41 Time =  1.866000000000E+003  -  1.867000000000E+003 
    1.000000000000E+000      1  1.000000000000E+000  # perlen nstp tsmult, Stress period     42 Time =  1.867000000000E+003  -  1.868000000000E+003 
    1.000000000000E+000      1  1.000000000000E+000  # perlen nstp tsmult, Stress period     43 Time =  1.868000000000E+003  -  1.869000000000E+003 
    1.000000000000E+000      1  1.000000000000E+000  # perlen nstp tsmult, Stress period     44 Time =  1.869000000000E+003  -  1.870000000000E+003 
    1.000000000000E+000      1  1.000000000000E+000  # perlen nstp tsmult, Stress period     45 Time =  1.870000000000E+003  -  1.871000000000E+003 
    1.000000000000E+000      1  1.000000000000E+000  # perlen nstp tsmult, Stress period     46 Time =  1.871000000000E+003  -  1.872000000000E+003 
    1.000000000000E+000      1  1.000000000000E+000  # perlen nstp tsmult, Stress period     47 Time =  1.872000000000E+003  -  1.873000000000E+003 
    1.000000000000E+000      1  1.000000000000E+000  # perlen nstp tsmult, Stress period     48 Time =  1.873000000000E+003  -  1.874000000000E+003 
    1.000000000000E+000      1  1.000000000000E+000  # perlen nstp tsmult, Stress period     49 Time =  1.874000000000E+003  -  1.875000000000E+003 
    1.000000000000E+000      1  1.000000000000E+000  # perlen nstp tsmult, Stress period     50 Time =  1.875000000000E+003  -  1.876000000000E+003 
    1.000000000000E+000      1  1.000000000000E+000  # perlen nstp tsmult, Stress period     51 Time =  1.876000000000E+003  -  1.877000000000E+003 
    1.000000000000E+000      1  1.000000000000E+000  # perlen nstp tsmult, Stress period     52 Time =  1.877000000000E+003  -  1.878000000000E+003 
    1.000000000000E+000      1  1.000000000000E+000  # perlen nstp tsmult, Stress period     53 Time =  1.878000000000E+003  -  1.879000000000E+003 
    1.000000000000E+000      1  1.000000000000E+000  # perlen nstp tsmult, Stress period     54 Time =  1.879000000000E+003  -  1.880000000000E+003 
    1.000000000000E+000      1  1.000000000000E+000  # perlen nstp tsmult, Stress period     55 Time =  1.880000000000E+003  -  1.881000000000E+003 
    1.000000000000E+000      1  1.000000000000E+000  # perlen nstp tsmult, Stress period     56 Time =  1.881000000000E+003  -  1.882000000000E+003 
    1.000000000000E+000      1  1.000000000000E+000  # perlen nstp tsmult, Stress period     57 Time =  1.882000000000E+003  -  1.883000000000E+003 
    1.000000000000E+000      1  1.000000000000E+000  # perlen nstp tsmult, Stress period     58 Time =  1.883000000000E+003  -  1.884000000000E+003 
    1.000000000000E+000      1  1.000000000000E+000  # perlen nstp tsmult, Stress period     59 Time =  1.884000000000E+003  -  1.885000000000E+003 
    1.000000000000E+000      1  1.000000000000E+000  # perlen nstp tsmult, Stress period     60 Time =  1.885000000000E+003  -  1.886000000000E+003 
    1.000000000000E+000      1  1.000000000000E+000  # perlen nstp tsmult, Stress period     61 Time =  1.886000000000E+003  -  1.887000000000E+003 
    1.000000000000E+000      1  1.000000000000E+000  # perlen nstp tsmult, Stress period     62 Time =  1.887000000000E+003  -  1.888000000000E+003 
    1.000000000000E+000      1  1.000000000000E+000  # perlen nstp tsmult, Stress period     63 Time =  1.888000000000E+003  -  1.889000000000E+003 
    1.000000000000E+000      1  1.000000000000E+000  # perlen nstp tsmult, Stress period     64 Time =  1.889000000000E+003  -  1.890000000000E+003 
    1.000000000000E+000      1  1.000000000000E+000  # perlen nstp tsmult, Stress period     65 Time =  1.890000000000E+003  -  1.891000000000E+003 
    1.000000000000E+000      1  1.000000000000E+000  # perlen nstp tsmult, Stress period     66 Time =  1.891000000000E+003  -  1.892000000000E+003 
    1.000000000000E+000      1  1.000000000000E+000  # perlen nstp tsmult, Stress period     67 Time =  1.892000000000E+003  -  1.893000000000E+003 
    1.000000000000E+000      1  1.000000000000E+000  # perlen nstp tsmult, Stress period     68 Time =  1.893000000000E+003  -  1.894000000000E+003 
    1.000000000000E+000      1  1.000000000000E+000  # perlen nstp tsmult, Stress period     69 Time =  1.894000000000E+003  -  1.895000000000E+003 
    1.000000000000E+000      1  1.000000000000E+000  # perlen nstp tsmult, Stress period     70 Time =  1.895000000000E+003  -  1.896000000000E+003 
    1.000000000000E+000      1  1.000000000000E+000  # perlen nstp tsmult, Stress period     71 Time =  1.896000000000E+003  -  1.897000000000E+003 
    1.000000000000E+000      1  1.000000000000E+000  # perlen nstp tsmult, Stress period     72 Time =  1.897000000000E+003  -  1.898000000000E+003 
    1.000000000000E+000      1  1.000000000000E+000  # perlen nstp tsmult, Stress period     73 Time =  1.898000000000E+003  -  1.899000000000E+003 
    1.000000000000E+000      1  1.000000000000E+000  # perlen nstp tsmult, Stress period     74 Time =  1.899000000000E+003  -  1.900000000000E+003 
    1.000000000000E+000      1  1.000000000000E+000  # perlen nstp tsmult, Stress period     75 Time =  1.900000000000E+003  -  1.901000000000E+003 
    1.000000000000E+000      1  1.000000000000E+000  # perlen nstp tsmult, Stress period     76 Time =  1.901000000000E+003  -  1.902000000000E+003 
    1.000000000000E+000      1  1.000000000000E+000  # perlen nstp tsmult, Stress period     77 Time =  1.902000000000E+003  -  1.903000000000E+003 
    1.000000000000E+000      1  1.000000000000E+000  # perlen nstp tsmult, Stress period     78 Time =  1.903000000000E+003  -  1.904000000000E+003 
    1.000000000000E+000      1  1.000000000000E+000  # perlen nstp tsmult, Stress period     79 Time =  1.904000000000E+003  -  1.905000000000E+003 
    1.000000000000E+000      1  1.000000000000E+000  # perlen nstp tsmult, Stress period     80 Time =  1.905000000000E+003  -  1.906000000000E+003 
    1.000000000000E+000      1  1.000000000000E+000  # perlen nstp tsmult, Stress period     81 Time =  1.906000000000E+003  -  1.907000000000E+003 
    1.000000000000E+000      1  1.000000000000E+000  # perlen nstp tsmult, Stress period     82 Time =  1.907000000000E+003  -  1.908000000000E+003 
    1.000000000000E+000      1  1.000000000000E+000  # perlen nstp tsmult, Stress period     83 Time =  1.908000000000E+003  -  1.909000000000E+003 
    1.000000000000E+000      1  1.000000000000E+000  # perlen nstp tsmult, Stress period     84 Time =  1.909000000000E+003  -  1.910000000000E+003 
    1.000000000000E+000      1  1.000000000000E+000  # perlen nstp tsmult, Stress period     85 Time =  1.910000000000E+003  -  1.911000000000E+003 
    1.000000000000E+000      1  1.000000000000E+000  # perlen nstp tsmult, Stress period     86 Time =  1.911000000000E+003  -  1.912000000000E+003 
    1.000000000000E+000      1  1.000000000000E+000  # perlen nstp tsmult, Stress period     87 Time =  1.912000000000E+003  -  1.913000000000E+003 
    1.000000000000E+000      1  1.000000000000E+000  # perlen nstp tsmult, Stress period     88 Time =  1.913000000000E+003  -  1.914000000000E+003 
    1.000000000000E+000      1  1.000000000000E+000  # perlen nstp tsmult, Stress period     89 Time =  1.914000000000E+003  -  1.915000000000E+003 
    1.000000000000E+000      1  1.000000000000E+000  # perlen nstp tsmult, Stress period     90 Time =  1.915000000000E+003  -  1.916000000000E+003 
    1.000000000000E+000      1  1.000000000000E+000  # perlen nstp tsmult, Stress period     91 Time =  1.916000000000E+003  -  1.917000000000E+003 
    1.000000000000E+000      1  1.000000000000E+000  # perlen nstp tsmult, Stress period     92 Time =  1.917000000000E+003  -  1.918000000000E+003 
    1.000000000000E+000      1  1.000000000000E+000  # perlen nstp tsmult, Stress period     93 Time =  1.918000000000E+003  -  1.919000000000E+003 
    1.000000000000E+000      1  1.000000000000E+000  # perlen nstp tsmult, Stress period     94 Time =  1.919000000000E+003  -  1.920000000000E+003 
    1.000000000000E+000      1  1.000000000000E+000  # perlen nstp tsmult, Stress period     95 Time =  1.920000000000E+003  -  1.921000000000E+003 
    1.000000000000E+000      1  1.000000000000E+000  # perlen nstp tsmult, Stress period     96 Time =  1.921000000000E+003  -  1.922000000000E+003 
    1.000000000000E+000      1  1.000000000000E+000  # perlen nstp tsmult, Stress period     97 Time =  1.922000000000E+003  -  1.923000000000E+003 
    1.000000000000E+000      1  1.000000000000E+000  # perlen nstp tsmult, Stress period     98 Time =  1.923000000000E+003  -  1.924000000000E+003 
    1.000000000000E+000      1  1.000000000000E+000  # perlen nstp tsmult, Stress period     99 Time =  1.924000000000E+003  -  1.925000000000E+003 
    1.000000000000E+000      1  1.000000000000E+000  # perlen nstp tsmult, Stress period    100 Time =  1.925000000000E+003  -  1.926000000000E+003 
    1.000000000000E+000      1  1.000000000000E+000  # perlen nstp tsmult, Stress period    101 Time =  1.926000000000E+003  -  1.927000000000E+003 
    1.000000000000E+000      1  1.000000000000E+000  # perlen nstp tsmult, Stress period    102 Time =  1.927000000000E+003  -  1.928000000000E+003 
    1.000000000000E+000      1  1.000000000000E+000  # perlen nstp tsmult, Stress period    103 Time =  1.928000000000E+003  -  1.929000000000E+003 
    1.000000000000E+000      1  1.000000000000E+000  # perlen nstp tsmult, Stress period    104 Time =  1.929000000000E+003  -  1.930000000000E+003 
    1.000000000000E+000      1  1.000000000000E+000  # perlen nstp tsmult, Stress period    105 Time =  1.930000000000E+003  -  1.931000000000E+003 
    1.000000000000E+000      1  1.000000000000E+000  # perlen nstp tsmult, Stress period    106 Time =  1.931000000000E+003  -  1.932000000000E+003 
    1.000000000000E+000      1  1.000000000000E+000  # perlen nstp tsmult, Stress period    107 Time =  1.932000000000E+003  -  1.933000000000E+003 
    1.000000000000E+000      1  1.000000000000E+000  # perlen nstp tsmult, Stress period    108 Time =  1.933000000000E+003  -  1.934000000000E+003 
    1.000000000000E+000      1  1.000000000000E+000  # perlen nstp tsmult, Stress period    109 Time =  1.934000000000E+003  -  1.935000000000E+003 
    1.000000000000E+000      1  1.000000000000E+000  # perlen nstp tsmult, Stress period    110 Time =  1.935000000000E+003  -  1.936000000000E+003 
    1.000000000000E+000      1  1.000000000000E+000  # perlen nstp tsmult, Stress period    111 Time =  1.936000000000E+003  -  1.937000000000E+003 
    1.000000000000E+000      1  1.000000000000E+000  # perlen nstp tsmult, Stress period    112 Time =  1.937000000000E+003  -  1.938000000000E+003 
    1.000000000000E+000      1  1.000000000000E+000  # perlen nstp tsmult, Stress period    113 Time =  1.938000000000E+003  -  1.939000000000E+003 
    1.000000000000E+000      1  1.000000000000E+000  # perlen nstp tsmult, Stress period    114 Time =  1.939000000000E+003  -  1.940000000000E+003 
    1.000000000000E+000      1  1.000000000000E+000  # perlen nstp tsmult, Stress period    115 Time =  1.940000000000E+003  -  1.941000000000E+003 
    1.000000000000E+000      1  1.000000000000E+000  # perlen nstp tsmult, Stress period    116 Time =  1.941000000000E+003  -  1.942000000000E+003 
    1.000000000000E+000      1  1.000000000000E+000  # perlen nstp tsmult, Stress period    117 Time =  1.942000000000E+003  -  1.943000000000E+003 
    1.000000000000E+000      1  1.000000000000E+000  # perlen nstp tsmult, Stress period    118 Time =  1.943000000000E+003  -  1.944000000000E+003 
    1.000000000000E+000      1  1.000000000000E+000  # perlen nstp tsmult, Stress period    119 Time =  1.944000000000E+003  -  1.945000000000E+003 
    1.000000000000E+000      1  1.000000000000E+000  # perlen nstp tsmult, Stress period    120 Time =  1.945000000000E+003  -  1.946000000000E+003 
    1.000000000000E+000      1  1.000000000000E+000  # perlen nstp tsmult, Stress period    121 Time =  1.946000000000E+003  -  1.947000000000E+003 
    1.000000000000E+000      1  1.000000000000E+000  # perlen nstp tsmult, Stress period    122 Time =  1.947000000000E+003  -  1.948000000000E+003 
    1.000000000000E+000      1  1.000000000000E+000  # perlen nstp tsmult, Stress period    123 Time =  1.948000000000E+003  -  1.949000000000E+003 
    1.000000000000E+000      1  1.000000000000E+000  # perlen nstp tsmult, Stress period    124 Time =  1.949000000000E+003  -  1.950000000000E+003 
    1.000000000000E+000      1  1.000000000000E+000  # perlen nstp tsmult, Stress period    125 Time =  1.950000000000E+003  -  1.951000000000E+003 
    1.000000000000E+000      1  1.000000000000E+000  # perlen nstp tsmult, Stress period    126 Time =  1.951000000000E+003  -  1.952000000000E+003 
    1.000000000000E+000      1  1.000000000000E+000  # perlen nstp tsmult, Stress period    127 Time =  1.952000000000E+003  -  1.953000000000E+003 
    1.000000000000E+000      1  1.000000000000E+000  # perlen nstp tsmult, Stress period    128 Time =  1.953000000000E+003  -  1.954000000000E+003 
    1.000000000000E+000      1  1.000000000000E+000  # perlen nstp tsmult, Stress period    129 Time =  1.954000000000E+003  -  1.955000000000E+003 
    1.000000000000E+000      1  1.000000000000E+000  # perlen nstp tsmult, Stress period    130 Time =  1.955000000000E+003  -  1.956000000000E+003 
    1.000000000000E+000      1  1.000000000000E+000  # perlen nstp tsmult, Stress period    131 Time =  1.956000000000E+003  -  1.957000000000E+003 
    1.000000000000E+000      1  1.000000000000E+000  # perlen nstp tsmult, Stress period    132 Time =  1.957000000000E+003  -  1.958000000000E+003 
    1.000000000000E+000      1  1.000000000000E+000  # perlen nstp tsmult, Stress period    133 Time =  1.958000000000E+003  -  1.959000000000E+003 
    1.000000000000E+000      1  1.000000000000E+000  # perlen nstp tsmult, Stress period    134 Time =  1.959000000000E+003  -  1.960000000000E+003 
    1.000000000000E+000      1  1.000000000000E+000  # perlen nstp tsmult, Stress period    135 Time =  1.960000000000E+003  -  1.961000000000E+003 
    1.000000000000E+000      1  1.000000000000E+000  # perlen nstp tsmult, Stress period    136 Time =  1.961000000000E+003  -  1.962000000000E+003 
    1.000000000000E+000      1  1.000000000000E+000  # perlen nstp tsmult, Stress period    137 Time =  1.962000000000E+003  -  1.963000000000E+003 
    1.000000000000E+000      1  1.000000000000E+000  # perlen nstp tsmult, Stress period    138 Time =  1.963000000000E+003  -  1.964000000000E+003 
    1.000000000000E+000      1  1.000000000000E+000  # perlen nstp tsmult, Stress period    139 Time =  1.964000000000E+003  -  1.965000000000E+003 
    1.000000000000E+000      1  1.000000000000E+000  # perlen nstp tsmult, Stress period    140 Time =  1.965000000000E+003  -  1.966000000000E+003 
    1.000000000000E+000      1  1.000000000000E+000  # perlen nstp tsmult, Stress period    141 Time =  1.966000000000E+003  -  1.967000000000E+003 
    1.000000000000E+000      1  1.000000000000E+000  # perlen nstp tsmult, Stress period    142 Time =  1.967000000000E+003  -  1.968000000000E+003 
    1.000000000000E+000      1  1.000000000000E+000  # perlen nstp tsmult, Stress period    143 Time =  1.968000000000E+003  -  1.969000000000E+003 
    1.000000000000E+000      1  1.000000000000E+000  # perlen nstp tsmult, Stress period    144 Time =  1.969000000000E+003  -  1.970000000000E+003 
    1.000000000000E+000      1  1.000000000000E+000  # perlen nstp tsmult, Stress period    145 Time =  1.970000000000E+003  -  1.971000000000E+003 
    1.000000000000E+000      1  1.000000000000E+000  # perlen nstp tsmult, Stress period    146 Time =  1.971000000000E+003  -  1.972000000000E+003 
    1.000000000000E+000      1  1.000000000000E+000  # perlen nstp tsmult, Stress period    147 Time =  1.972000000000E+003  -  1.973000000000E+003 
    1.000000000000E+000      1  1.000000000000E+000  # perlen nstp tsmult, Stress period    148 Time =  1.973000000000E+003  -  1.974000000000E+003 
    1.000000000000E+000      1  1.000000000000E+000  # perlen nstp tsmult, Stress period    149 Time =  1.974000000000E+003  -  1.975000000000E+003 
    1.000000000000E+000      1  1.000000000000E+000  # perlen nstp tsmult, Stress period    150 Time =  1.975000000000E+003  -  1.976000000000E+003 
    1.000000000000E+000      1  1.000000000000E+000  # perlen nstp tsmult, Stress period    151 Time =  1.976000000000E+003  -  1.977000000000E+003 
    1.000000000000E+000      1  1.000000000000E+000  # perlen nstp tsmult, Stress period    152 Time =  1.977000000000E+003  -  1.978000000000E+003 
    1.000000000000E+000      1  1.000000000000E+000  # perlen nstp tsmult, Stress period    153 Time =  1.978000000000E+003  -  1.979000000000E+003 
    1.000000000000E+000      1  1.000000000000E+000  # perlen nstp tsmult, Stress period    154 Time =  1.979000000000E+003  -  1.980000000000E+003 
    1.000000000000E+000      1  1.000000000000E+000  # perlen nstp tsmult, Stress period    155 Time =  1.980000000000E+003  -  1.981000000000E+003 
    1.000000000000E+000      1  1.000000000000E+000  # perlen nstp tsmult, Stress period    156 Time =  1.981000000000E+003  -  1.982000000000E+003 
    1.000000000000E+000      1  1.000000000000E+000  # perlen nstp tsmult, Stress period    157 Time =  1.982000000000E+003  -  1.983000000000E+003 
    1.000000000000E+000      1  1.000000000000E+000  # perlen nstp tsmult, Stress period    158 Time =  1.983000000000E+003  -  1.984000000000E+003 
    1.000000000000E+000      1  1.000000000000E+000  # perlen nstp tsmult, Stress period    159 Time =  1.984000000000E+003  -  1.985000000000E+003 
    1.000000000000E+000      1  1.000000000000E+000  # perlen nstp tsmult, Stress period    160 Time =  1.985000000000E+003  -  1.986000000000E+003 
    1.000000000000E+000      1  1.000000000000E+000  # perlen nstp tsmult, Stress period    161 Time =  1.986000000000E+003  -  1.987000000000E+003 
    1.000000000000E+000      1  1.000000000000E+000  # perlen nstp tsmult, Stress period    162 Time =  1.987000000000E+003  -  1.988000000000E+003 
    1.000000000000E+000      1  1.000000000000E+000  # perlen nstp tsmult, Stress period    163 Time =  1.988000000000E+003  -  1.989000000000E+003 
    1.000000000000E+000      1  1.000000000000E+000  # perlen nstp tsmult, Stress period    164 Time =  1.989000000000E+003  -  1.990000000000E+003 
    1.000000000000E+000      1  1.000000000000E+000  # perlen nstp tsmult, Stress period    165 Time =  1.990000000000E+003  -  1.991000000000E+003 
    1.000000000000E+000      1  1.000000000000E+000  # perlen nstp tsmult, Stress period    166 Time =  1.991000000000E+003  -  1.992000000000E+003 
    1.000000000000E+000      1  1.000000000000E+000  # perlen nstp tsmult, Stress period    167 Time =  1.992000000000E+003  -  1.993000000000E+003 
    1.000000000000E+000      1  1.000000000000E+000  # perlen nstp tsmult, Stress period    168 Time =  1.993000000000E+003  -  1.994000000000E+003 
    1.000000000000E+000      1  1.000000000000E+000  # perlen nstp tsmult, Stress period    169 Time =  1.994000000000E+003  -  1.995000000000E+003 
    1.000000000000E+000      1  1.000000000000E+000  # perlen nstp tsmult, Stress period    170 Time =  1.995000000000E+003  -  1.996000000000E+003 
    1.000000000000E+000      1  1.000000000000E+000  # perlen nstp tsmult, Stress period    171 Time =  1.996000000000E+003  -  1.997000000000E+003 
    1.000000000000E+000      1  1.000000000000E+000  # perlen nstp tsmult, Stress period    172 Time =  1.997000000000E+003  -  1.998000000000E+003 
    1.000000000000E+000      1  1.000000000000E+000  # perlen nstp tsmult, Stress period    173 Time =  1.998000000000E+003  -  1.999000000000E+003 
    1.000000000000E+000      1  1.000000000000E+000  # perlen nstp tsmult, Stress period    174 Time =  1.999000000000E+003  -  2.000000000000E+003 
    1.000000000000E+000      1  1.000000000000E+000  # perlen nstp tsmult, Stress period    175 Time =  2.000000000000E+003  -  2.001000000000E+003 
    1.000000000000E+000      1  1.000000000000E+000  # perlen nstp tsmult, Stress period    176 Time =  2.001000000000E+003  -  2.002000000000E+003 
    1.000000000000E+000      1  1.000000000000E+000  # perlen nstp tsmult, Stress period    177 Time =  2.002000000000E+003  -  2.003000000000E+003 
    1.000000000000E+000      1  1.000000000000E+000  # perlen nstp tsmult, Stress period    178 Time =  2.003000000000E+003  -  2.004000000000E+003 
    1.000000000000E+000      1  1.000000000000E+000  # perlen nstp tsmult, Stress period    179 Time =  2.004000000000E+003  -  2.005000000000E+003 
    1.000000000000E+000      1  1.000000000000E+000  # perlen nstp tsmult, Stress period    180 Time =  2.005000000000E+003  -  2.006000000000E+003 
    1.000000000000E+000      1  1.000000000000E+000  # perlen nstp tsmult, Stress period    181 Time =  2.006000000000E+003  -  2.007000000000E+003 
    1.000000000000E+000      1  1.000000000000E+000  # perlen nstp tsmult, Stress period    182 Time =  2.007000000000E+003  -  2.008000000000E+003 
    1.000000000000E+000      1  1.000000000000E+000  # perlen nstp tsmult, Stress period    183 Time =  2.008000000000E+003  -  2.009000000000E+003 
    1.000000000000E+000      1  1.000000000000E+000  # perlen nstp tsmult, Stress period    184 Time =  2.009000000000E+003  -  2.010000000000E+003 
    1.000000000000E+000      1  1.000000000000E+000  # perlen nstp tsmult, Stress period    185 Time =  2.010000000000E+003  -  2.011000000000E+003 
    1.000000000000E+000      1  1.000000000000E+000  # perlen nstp tsmult, Stress period    186 Time =  2.011000000000E+003  -  2.012000000000E+003 
    1.000000000000E+000      1  1.000000000000E+000  # perlen nstp tsmult, Stress period    187 Time =  2.012000000000E+003  -  2.013000000000E+003 
    1.000000000000E+000      1  1.000000000000E+000  # perlen nstp tsmult, Stress period    188 Time =  2.013000000000E+003  -  2.014000000000E+003 
    1.000000000000E+000      1  1.000000000000E+000  # perlen nstp tsmult, Stress period    189 Time =  2.014000000000E+003  -  2.015000000000E+003 
    1.000000000000E+000      1  1.000000000000E+000  # perlen nstp tsmult, Stress period    190 Time =  2.015000000000E+003  -  2.016000000000E+003 
    1.000000000000E+000      1  1.000000000000E+000  # perlen nstp tsmult, Stress period    191 Time =  2.016000000000E+003  -  2.017000000000E+003 
    1.000000000000E+000      1  1.000000000000E+000  # perlen nstp tsmult, Stress period    192 Time =  2.017000000000E+003  -  2.018000000000E+003 
    1.000000000000E+000      1  1.000000000000E+000  # perlen nstp tsmult, Stress period    193 Time =  2.018000000000E+003  -  2.019000000000E+003 
    1.000000000000E+000      1  1.000000000000E+000  # perlen nstp tsmult, Stress period    194 Time =  2.019000000000E+003  -  2.020000000000E+003 
    1.000000000000E+000      1  1.000000000000E+000  # perlen nstp tsmult, Stress period    195 Time =  2.020000000000E+003  -  2.021000000000E+003 
    1.000000000000E+000      1  1.000000000000E+000  # perlen nstp tsmult, Stress period    196 Time =  2.021000000000E+003  -  2.022000000000E+003 
    1.000000000000E+000      1  1.000000000000E+000  # perlen nstp tsmult, Stress period    197 Time =  2.022000000000E+003  -  2.023000000000E+003 
    1.000000000000E+000      1  1.000000000000E+000  # perlen nstp tsmult, Stress period    198 Time =  2.023000000000E+003  -  2.024000000000E+003 