# STO: Storage package file created on 3/27/2023 by ModelMuse version 5.1.1.20.
BEGIN OPTIONS
    SAVE_FLOWS
END OPTIONS

BEGIN GRIDDATA
  ICONVERT LAYERED IPRN    -1
    CONSTANT      1 # ICONVERT 1
    CONSTANT      1 # ICONVERT 2
    CONSTANT      1 # ICONVERT 3
    CONSTANT      1 # ICONVERT 4
    CONSTANT      1 # ICONVERT 5
  SS LAYERED IPRN    -1
    CONSTANT   1.000000000000E-005  # SS 1

    CONSTANT   1.000000000000E-005  # SS 2

    CONSTANT   1.000000000000E-005  # SS 3

    CONSTANT   1.000000000000E-005  # SS 4

    CONSTANT   1.000000000000E-005  # SS 5

  SY LAYERED IPRN    -1
    CONSTANT   2.000000000000E-001  # SY 1

    CONSTANT   2.000000000000E-001  # SY 2

    CONSTANT   2.000000000000E-001  # SY 3

    CONSTANT   2.000000000000E-001  # SY 4

    CONSTANT   2.000000000000E-001  # SY 5

END GRIDDATA

BEGIN PERIOD      1
  TRANSIENT
END PERIOD 

