# Output Control file created on 3/27/2023 by ModelMuse version 5.1.1.20.
BEGIN OPTIONS
  BUDGET FILEOUT 'green2010_v3.cbc'
  HEAD FILEOUT 'green2010_v3.hds'
END OPTIONS

BEGIN PERIOD      1
  SAVE HEAD LAST
  PRINT BUDGET LAST
  SAVE BUDGET LAST
END PERIOD 



