# NPF: Node Property Flow package file created on 3/27/2023 by ModelMuse version 5.1.1.20.
BEGIN OPTIONS
    SAVE_FLOWS
  SAVE_SPECIFIC_DISCHARGE
  SAVE_SATURATION
END OPTIONS


BEGIN GRIDDATA
  ICELLTYPE LAYERED IPRN    -1
    CONSTANT      1 # ICELLTYPE 1
    CONSTANT      1 # ICELLTYPE 2
    CONSTANT      1 # ICELLTYPE 3
    CONSTANT      1 # ICELLTYPE 4
    CONSTANT      1 # ICELLTYPE 5
  K LAYERED
    INTERNAL IPRN     -1 # K 1
        0.000000000000E+000   0.000000000000E+000   0.000000000000E+000   0.000000000000E+000   0.000000000000E+000   0.000000000000E+000   0.000000000000E+000   0.000000000000E+000   0.000000000000E+000   0.000000000000E+000 
        0.000000000000E+000   0.000000000000E+000   0.000000000000E+000   0.000000000000E+000   0.000000000000E+000   0.000000000000E+000   0.000000000000E+000   0.000000000000E+000   0.000000000000E+000   0.000000000000E+000 
        0.000000000000E+000   0.000000000000E+000   0.000000000000E+000   0.000000000000E+000   0.000000000000E+000   0.000000000000E+000   0.000000000000E+000   0.000000000000E+000   0.000000000000E+000   0.000000000000E+000 
        0.000000000000E+000   0.000000000000E+000   0.000000000000E+000   0.000000000000E+000   0.000000000000E+000   0.000000000000E+000   0.000000000000E+000   0.000000000000E+000   0.000000000000E+000   0.000000000000E+000 
        0.000000000000E+000   0.000000000000E+000   0.000000000000E+000   0.000000000000E+000   0.000000000000E+000   0.000000000000E+000   0.000000000000E+000   0.000000000000E+000   0.000000000000E+000   0.000000000000E+000 
        0.000000000000E+000   0.000000000000E+000   0.000000000000E+000   0.000000000000E+000   0.000000000000E+000   0.000000000000E+000   0.000000000000E+000 
        0.000000000000E+000   0.000000000000E+000   0.000000000000E+000   0.000000000000E+000   0.000000000000E+000   0.000000000000E+000   0.000000000000E+000   0.000000000000E+000   0.000000000000E+000   0.000000000000E+000 
        0.000000000000E+000   0.000000000000E+000   0.000000000000E+000   0.000000000000E+000   0.000000000000E+000   0.000000000000E+000   0.000000000000E+000   0.000000000000E+000   0.000000000000E+000   0.000000000000E+000 
        0.000000000000E+000   0.000000000000E+000   0.000000000000E+000   0.000000000000E+000   0.000000000000E+000   0.000000000000E+000   0.000000000000E+000   0.000000000000E+000   0.000000000000E+000   0.000000000000E+000 
        0.000000000000E+000   0.000000000000E+000   0.000000000000E+000   0.000000000000E+000   0.000000000000E+000   0.000000000000E+000   0.000000000000E+000   0.000000000000E+000   0.000000000000E+000   0.000000000000E+000 
        0.000000000000E+000   1.007805000000E+002   1.008335000000E+002   1.006683000000E+002   1.005139000000E+002   1.005394000000E+002   0.000000000000E+000   0.000000000000E+000   0.000000000000E+000   0.000000000000E+000 
        0.000000000000E+000   0.000000000000E+000   0.000000000000E+000   0.000000000000E+000   0.000000000000E+000   0.000000000000E+000   0.000000000000E+000 
        0.000000000000E+000   0.000000000000E+000   0.000000000000E+000   0.000000000000E+000   0.000000000000E+000   0.000000000000E+000   0.000000000000E+000   0.000000000000E+000   0.000000000000E+000   0.000000000000E+000 
        0.000000000000E+000   0.000000000000E+000   0.000000000000E+000   0.000000000000E+000   0.000000000000E+000   0.000000000000E+000   0.000000000000E+000   0.000000000000E+000   0.000000000000E+000   0.000000000000E+000 
        0.000000000000E+000   0.000000000000E+000   0.000000000000E+000   0.000000000000E+000   0.000000000000E+000   0.000000000000E+000   0.000000000000E+000   0.000000000000E+000   0.000000000000E+000   0.000000000000E+000 
        0.000000000000E+000   0.000000000000E+000   0.000000000000E+000   0.000000000000E+000   0.000000000000E+000   0.000000000000E+000   0.000000000000E+000   0.000000000000E+000   0.000000000000E+000   1.011880000000E+002 
        1.011844000000E+002   1.009174000000E+002   1.007086000000E+002   1.006033000000E+002   1.013634000000E+002   1.033902000000E+002   1.046790000000E+002   1.056920000000E+002   0.000000000000E+000   0.000000000000E+000 
        0.000000000000E+000   0.000000000000E+000   0.000000000000E+000   0.000000000000E+000   0.000000000000E+000   0.000000000000E+000   0.000000000000E+000 
        0.000000000000E+000   0.000000000000E+000   0.000000000000E+000   0.000000000000E+000   0.000000000000E+000   0.000000000000E+000   0.000000000000E+000   0.000000000000E+000   0.000000000000E+000   0.000000000000E+000 
        0.000000000000E+000   0.000000000000E+000   0.000000000000E+000   0.000000000000E+000   0.000000000000E+000   0.000000000000E+000   0.000000000000E+000   0.000000000000E+000   0.000000000000E+000   0.000000000000E+000 
        0.000000000000E+000   0.000000000000E+000   0.000000000000E+000   0.000000000000E+000   0.000000000000E+000   0.000000000000E+000   0.000000000000E+000   0.000000000000E+000   0.000000000000E+000   0.000000000000E+000 
        0.000000000000E+000   0.000000000000E+000   0.000000000000E+000   0.000000000000E+000   0.000000000000E+000   0.000000000000E+000   0.000000000000E+000   0.000000000000E+000   1.010283000000E+002   1.009959000000E+002 
        1.009228000000E+002   1.017435000000E+002   1.025403000000E+002   1.044628000000E+002   1.054019000000E+002   1.056079000000E+002   1.054763000000E+002   1.055037000000E+002   1.056604000000E+002   1.058302000000E+002 
        1.061109000000E+002   1.061567000000E+002   0.000000000000E+000   0.000000000000E+000   0.000000000000E+000   0.000000000000E+000   0.000000000000E+000 
        0.000000000000E+000   0.000000000000E+000   0.000000000000E+000   0.000000000000E+000   0.000000000000E+000   0.000000000000E+000   0.000000000000E+000   0.000000000000E+000   0.000000000000E+000   0.000000000000E+000 
        0.000000000000E+000   0.000000000000E+000   0.000000000000E+000   0.000000000000E+000   0.000000000000E+000   0.000000000000E+000   0.000000000000E+000   0.000000000000E+000   0.000000000000E+000   0.000000000000E+000 
        0.000000000000E+000   0.000000000000E+000   0.000000000000E+000   0.000000000000E+000   0.000000000000E+000   0.000000000000E+000   0.000000000000E+000   0.000000000000E+000   0.000000000000E+000   0.000000000000E+000 
        0.000000000000E+000   0.000000000000E+000   0.000000000000E+000   0.000000000000E+000   0.000000000000E+000   0.000000000000E+000   0.000000000000E+000   0.000000000000E+000   1.009081000000E+002   1.015241000000E+002 
        1.035670000000E+002   1.057285000000E+002   1.060253000000E+002   1.061412000000E+002   1.061026000000E+002   1.062027000000E+002   1.064393000000E+002   1.069653000000E+002   1.068325000000E+002   1.066214000000E+002 
        1.061507000000E+002   1.065567000000E+002   1.073608000000E+002   0.000000000000E+000   0.000000000000E+000   0.000000000000E+000   0.000000000000E+000 
        0.000000000000E+000   0.000000000000E+000   0.000000000000E+000   0.000000000000E+000   0.000000000000E+000   0.000000000000E+000   0.000000000000E+000   0.000000000000E+000   0.000000000000E+000   0.000000000000E+000 
        0.000000000000E+000   0.000000000000E+000   0.000000000000E+000   0.000000000000E+000   0.000000000000E+000   0.000000000000E+000   0.000000000000E+000   0.000000000000E+000   0.000000000000E+000   0.000000000000E+000 
        0.000000000000E+000   0.000000000000E+000   0.000000000000E+000   0.000000000000E+000   0.000000000000E+000   0.000000000000E+000   0.000000000000E+000   0.000000000000E+000   0.000000000000E+000   0.000000000000E+000 
        0.000000000000E+000   0.000000000000E+000   0.000000000000E+000   0.000000000000E+000   0.000000000000E+000   0.000000000000E+000   0.000000000000E+000   1.034655000000E+002   1.037793000000E+002   1.038188000000E+002 
        1.056890000000E+002   1.116698000000E+002   1.116051000000E+002   1.116872000000E+002   1.135401000000E+002   1.100335000000E+002   1.089863000000E+002   1.086951000000E+002   1.081157000000E+002   1.080212000000E+002 
        1.067448000000E+002   1.053891000000E+002   1.067194000000E+002   1.080220000000E+002   0.000000000000E+000   0.000000000000E+000   0.000000000000E+000 
        0.000000000000E+000   0.000000000000E+000   0.000000000000E+000   0.000000000000E+000   0.000000000000E+000   0.000000000000E+000   0.000000000000E+000   0.000000000000E+000   0.000000000000E+000   0.000000000000E+000 
        0.000000000000E+000   0.000000000000E+000   0.000000000000E+000   0.000000000000E+000   0.000000000000E+000   0.000000000000E+000   0.000000000000E+000   0.000000000000E+000   0.000000000000E+000   0.000000000000E+000 
        0.000000000000E+000   0.000000000000E+000   0.000000000000E+000   0.000000000000E+000   0.000000000000E+000   0.000000000000E+000   0.000000000000E+000   0.000000000000E+000   0.000000000000E+000   0.000000000000E+000 
        0.000000000000E+000   0.000000000000E+000   0.000000000000E+000   0.000000000000E+000   0.000000000000E+000   0.000000000000E+000   1.049581000000E+002   1.048440000000E+002   1.046538000000E+002   1.049666000000E+002 
        1.091198000000E+002   1.094824000000E+002   1.095967000000E+002   1.095577000000E+002   1.099859000000E+002   1.109904000000E+002   1.140368000000E+002   1.116908000000E+002   1.125208000000E+002   1.118262000000E+002 
        1.083061000000E+002   1.058977000000E+002   1.056449000000E+002   1.064856000000E+002   1.074407000000E+002   0.000000000000E+000   0.000000000000E+000 
        0.000000000000E+000   0.000000000000E+000   0.000000000000E+000   0.000000000000E+000   0.000000000000E+000   0.000000000000E+000   0.000000000000E+000   0.000000000000E+000   0.000000000000E+000   0.000000000000E+000 
        0.000000000000E+000   0.000000000000E+000   0.000000000000E+000   0.000000000000E+000   0.000000000000E+000   0.000000000000E+000   0.000000000000E+000   0.000000000000E+000   0.000000000000E+000   0.000000000000E+000 
        0.000000000000E+000   0.000000000000E+000   0.000000000000E+000   0.000000000000E+000   0.000000000000E+000   0.000000000000E+000   0.000000000000E+000   0.000000000000E+000   0.000000000000E+000   0.000000000000E+000 
        0.000000000000E+000   0.000000000000E+000   0.000000000000E+000   0.000000000000E+000   0.000000000000E+000   1.053640000000E+002   1.048300000000E+002   1.046201000000E+002   1.049594000000E+002   1.069301000000E+002 
        1.124971000000E+002   1.104933000000E+002   1.097256000000E+002   1.101730000000E+002   1.111282000000E+002   1.115312000000E+002   1.122068000000E+002   1.129870000000E+002   1.129817000000E+002   1.126805000000E+002 
        1.102234000000E+002   1.071755000000E+002   1.063198000000E+002   1.067698000000E+002   1.075984000000E+002   1.085865000000E+002   1.097507000000E+002 
        0.000000000000E+000   0.000000000000E+000   0.000000000000E+000   0.000000000000E+000   0.000000000000E+000   0.000000000000E+000   0.000000000000E+000   0.000000000000E+000   0.000000000000E+000   0.000000000000E+000 
        0.000000000000E+000   0.000000000000E+000   0.000000000000E+000   0.000000000000E+000   0.000000000000E+000   0.000000000000E+000   0.000000000000E+000   0.000000000000E+000   0.000000000000E+000   0.000000000000E+000 
        0.000000000000E+000   0.000000000000E+000   0.000000000000E+000   0.000000000000E+000   0.000000000000E+000   0.000000000000E+000   0.000000000000E+000   0.000000000000E+000   0.000000000000E+000   0.000000000000E+000 
        0.000000000000E+000   0.000000000000E+000   0.000000000000E+000   0.000000000000E+000   1.059316000000E+002   1.055027000000E+002   1.048162000000E+002   1.050138000000E+002   1.059982000000E+002   1.113686000000E+002 
        1.100597000000E+002   1.105829000000E+002   1.100845000000E+002   1.103352000000E+002   1.118113000000E+002   1.123613000000E+002   1.128068000000E+002   1.127311000000E+002   1.130871000000E+002   1.130642000000E+002 
        1.130496000000E+002   1.090775000000E+002   1.077374000000E+002   1.074687000000E+002   1.081596000000E+002   1.093659000000E+002   1.102850000000E+002 
        0.000000000000E+000   0.000000000000E+000   0.000000000000E+000   0.000000000000E+000   0.000000000000E+000   0.000000000000E+000   0.000000000000E+000   0.000000000000E+000   0.000000000000E+000   0.000000000000E+000 
        0.000000000000E+000   0.000000000000E+000   0.000000000000E+000   0.000000000000E+000   0.000000000000E+000   0.000000000000E+000   0.000000000000E+000   0.000000000000E+000   0.000000000000E+000   0.000000000000E+000 
        0.000000000000E+000   0.000000000000E+000   0.000000000000E+000   0.000000000000E+000   0.000000000000E+000   0.000000000000E+000   0.000000000000E+000   0.000000000000E+000   0.000000000000E+000   0.000000000000E+000 
        0.000000000000E+000   0.000000000000E+000   0.000000000000E+000   1.063209000000E+002   1.061087000000E+002   1.051177000000E+002   1.050204000000E+002   1.058350000000E+002   1.092667000000E+002   1.136106000000E+002 
        1.107654000000E+002   1.104543000000E+002   1.103154000000E+002   1.106588000000E+002   1.120466000000E+002   1.120958000000E+002   1.127230000000E+002   1.135842000000E+002   1.140780000000E+002   1.136595000000E+002 
        1.136875000000E+002   1.140998000000E+002   1.111430000000E+002   1.093481000000E+002   1.094528000000E+002   1.098909000000E+002   1.102681000000E+002 
        0.000000000000E+000   0.000000000000E+000   0.000000000000E+000   0.000000000000E+000   0.000000000000E+000   0.000000000000E+000   0.000000000000E+000   0.000000000000E+000   0.000000000000E+000   0.000000000000E+000 
        0.000000000000E+000   0.000000000000E+000   0.000000000000E+000   0.000000000000E+000   0.000000000000E+000   0.000000000000E+000   0.000000000000E+000   0.000000000000E+000   0.000000000000E+000   0.000000000000E+000 
        0.000000000000E+000   0.000000000000E+000   0.000000000000E+000   0.000000000000E+000   0.000000000000E+000   0.000000000000E+000   0.000000000000E+000   0.000000000000E+000   0.000000000000E+000   0.000000000000E+000 
        0.000000000000E+000   0.000000000000E+000   1.061318000000E+002   1.063206000000E+002   1.057335000000E+002   1.051710000000E+002   1.060536000000E+002   1.106761000000E+002   1.137389000000E+002   1.116646000000E+002 
        1.110533000000E+002   1.105412000000E+002   1.104850000000E+002   1.116031000000E+002   1.128278000000E+002   1.123952000000E+002   1.129871000000E+002   1.138976000000E+002   1.156336000000E+002   1.153752000000E+002 
        1.152515000000E+002   1.152691000000E+002   1.147577000000E+002   1.145185000000E+002   1.139574000000E+002   1.128096000000E+002   1.122296000000E+002 
        0.000000000000E+000   0.000000000000E+000   0.000000000000E+000   0.000000000000E+000   0.000000000000E+000   0.000000000000E+000   0.000000000000E+000   0.000000000000E+000   0.000000000000E+000   0.000000000000E+000 
        0.000000000000E+000   0.000000000000E+000   0.000000000000E+000   0.000000000000E+000   0.000000000000E+000   0.000000000000E+000   0.000000000000E+000   0.000000000000E+000   0.000000000000E+000   0.000000000000E+000 
        0.000000000000E+000   0.000000000000E+000   0.000000000000E+000   0.000000000000E+000   0.000000000000E+000   0.000000000000E+000   0.000000000000E+000   0.000000000000E+000   0.000000000000E+000   0.000000000000E+000 
        1.036480000000E+002   1.049084000000E+002   1.059701000000E+002   1.060714000000E+002   1.057517000000E+002   1.063913000000E+002   1.117194000000E+002   1.114929000000E+002   1.116428000000E+002   1.126515000000E+002 
        1.118743000000E+002   1.108002000000E+002   1.111207000000E+002   1.117249000000E+002   1.137857000000E+002   1.128451000000E+002   1.137760000000E+002   1.159481000000E+002   1.172296000000E+002   1.176127000000E+002 
        1.167623000000E+002   1.164798000000E+002   1.156787000000E+002   1.145718000000E+002   1.142789000000E+002   1.146293000000E+002   1.146069000000E+002 
        0.000000000000E+000   0.000000000000E+000   0.000000000000E+000   0.000000000000E+000   0.000000000000E+000   0.000000000000E+000   0.000000000000E+000   0.000000000000E+000   0.000000000000E+000   0.000000000000E+000 
        0.000000000000E+000   0.000000000000E+000   0.000000000000E+000   0.000000000000E+000   0.000000000000E+000   0.000000000000E+000   0.000000000000E+000   0.000000000000E+000   0.000000000000E+000   0.000000000000E+000 
        0.000000000000E+000   0.000000000000E+000   0.000000000000E+000   0.000000000000E+000   0.000000000000E+000   1.003062000000E+002   1.017397000000E+002   1.026384000000E+002   1.033505000000E+002   1.035838000000E+002 
        1.038475000000E+002   1.048632000000E+002   1.061611000000E+002   1.058722000000E+002   1.064113000000E+002   1.105603000000E+002   1.104916000000E+002   1.119867000000E+002   1.125032000000E+002   1.122485000000E+002 
        1.121153000000E+002   1.116724000000E+002   1.117713000000E+002   1.119063000000E+002   1.134636000000E+002   1.141878000000E+002   1.164245000000E+002   1.178823000000E+002   1.181048000000E+002   1.181905000000E+002 
        1.185425000000E+002   1.179085000000E+002   1.168763000000E+002   1.152861000000E+002   1.146124000000E+002   0.000000000000E+000   0.000000000000E+000 
        0.000000000000E+000   0.000000000000E+000   0.000000000000E+000   0.000000000000E+000   0.000000000000E+000   0.000000000000E+000   0.000000000000E+000   0.000000000000E+000   0.000000000000E+000   0.000000000000E+000 
        0.000000000000E+000   0.000000000000E+000   0.000000000000E+000   0.000000000000E+000   0.000000000000E+000   0.000000000000E+000   0.000000000000E+000   0.000000000000E+000   0.000000000000E+000   0.000000000000E+000 
        0.000000000000E+000   0.000000000000E+000   9.696220000000E+001   9.954840000000E+001   1.007824000000E+002   1.014331000000E+002   1.018935000000E+002   1.027820000000E+002   1.037159000000E+002   1.040141000000E+002 
        1.038820000000E+002   1.048710000000E+002   1.059088000000E+002   1.070025000000E+002   1.105677000000E+002   1.115082000000E+002   1.112237000000E+002   1.125731000000E+002   1.126207000000E+002   1.125154000000E+002 
        1.128642000000E+002   1.130253000000E+002   1.127833000000E+002   1.127557000000E+002   1.137761000000E+002   1.156133000000E+002   1.189582000000E+002   1.191863000000E+002   1.189407000000E+002   1.185376000000E+002 
        1.188923000000E+002   1.188194000000E+002   1.162037000000E+002   1.158089000000E+002   1.146055000000E+002   0.000000000000E+000   0.000000000000E+000 
        0.000000000000E+000   0.000000000000E+000   0.000000000000E+000   0.000000000000E+000   0.000000000000E+000   0.000000000000E+000   0.000000000000E+000   0.000000000000E+000   0.000000000000E+000   0.000000000000E+000 
        0.000000000000E+000   0.000000000000E+000   0.000000000000E+000   0.000000000000E+000   0.000000000000E+000   0.000000000000E+000   0.000000000000E+000   0.000000000000E+000   0.000000000000E+000   0.000000000000E+000 
        9.410580000000E+001   9.823900000000E+001   9.975420000000E+001   1.009822000000E+002   1.014255000000E+002   1.017400000000E+002   1.022006000000E+002   1.030445000000E+002   1.034688000000E+002   1.040877000000E+002 
        1.046819000000E+002   1.049340000000E+002   1.098509000000E+002   1.127705000000E+002   1.119021000000E+002   1.122577000000E+002   1.121662000000E+002   1.127427000000E+002   1.128249000000E+002   1.131478000000E+002 
        1.140638000000E+002   1.145495000000E+002   1.144705000000E+002   1.148153000000E+002   1.159192000000E+002   1.171485000000E+002   1.194385000000E+002   1.203249000000E+002   1.197303000000E+002   1.192701000000E+002 
        1.191944000000E+002   1.187619000000E+002   1.176875000000E+002   1.159148000000E+002   1.154189000000E+002   1.145060000000E+002   1.127562000000E+002 
        0.000000000000E+000   0.000000000000E+000   0.000000000000E+000   0.000000000000E+000   0.000000000000E+000   0.000000000000E+000   0.000000000000E+000   0.000000000000E+000   0.000000000000E+000   0.000000000000E+000 
        0.000000000000E+000   0.000000000000E+000   0.000000000000E+000   0.000000000000E+000   0.000000000000E+000   0.000000000000E+000   0.000000000000E+000   0.000000000000E+000   9.111380000000E+001   9.551270000000E+001 
        9.836900000000E+001   9.961210000000E+001   1.010083000000E+002   1.014269000000E+002   1.018138000000E+002   1.021969000000E+002   1.026827000000E+002   1.033972000000E+002   1.044505000000E+002   1.055821000000E+002 
        1.074864000000E+002   1.119896000000E+002   1.114907000000E+002   1.132462000000E+002   1.132740000000E+002   1.129760000000E+002   1.129545000000E+002   1.132508000000E+002   1.132854000000E+002   1.138620000000E+002 
        1.153121000000E+002   1.161963000000E+002   1.162964000000E+002   1.169060000000E+002   1.182565000000E+002   1.184136000000E+002   1.190715000000E+002   1.199766000000E+002   1.209833000000E+002   1.201353000000E+002 
        1.196730000000E+002   1.190882000000E+002   1.181452000000E+002   1.168948000000E+002   1.152847000000E+002   1.131444000000E+002   1.106705000000E+002 
        0.000000000000E+000   0.000000000000E+000   0.000000000000E+000   0.000000000000E+000   0.000000000000E+000   0.000000000000E+000   0.000000000000E+000   0.000000000000E+000   0.000000000000E+000   0.000000000000E+000 
        0.000000000000E+000   0.000000000000E+000   0.000000000000E+000   0.000000000000E+000   0.000000000000E+000   0.000000000000E+000   0.000000000000E+000   0.000000000000E+000   9.630260000000E+001   9.817530000000E+001 
        9.944000000000E+001   1.006064000000E+002   1.013427000000E+002   1.018027000000E+002   1.027709000000E+002   1.072254000000E+002   1.077201000000E+002   1.077333000000E+002   1.089885000000E+002   1.124185000000E+002 
        1.115295000000E+002   1.113269000000E+002   1.128091000000E+002   1.135343000000E+002   1.137513000000E+002   1.139456000000E+002   1.142146000000E+002   1.139292000000E+002   1.139350000000E+002   1.145575000000E+002 
        1.164641000000E+002   1.175842000000E+002   1.174582000000E+002   1.180948000000E+002   1.190885000000E+002   1.193819000000E+002   1.192640000000E+002   1.194199000000E+002   1.204176000000E+002   1.197363000000E+002 
        1.199583000000E+002   1.194254000000E+002   1.182840000000E+002   1.158592000000E+002   1.140940000000E+002   1.124480000000E+002   1.107991000000E+002 
        0.000000000000E+000   0.000000000000E+000   0.000000000000E+000   0.000000000000E+000   0.000000000000E+000   0.000000000000E+000   0.000000000000E+000   0.000000000000E+000   0.000000000000E+000   0.000000000000E+000 
        0.000000000000E+000   0.000000000000E+000   0.000000000000E+000   0.000000000000E+000   0.000000000000E+000   0.000000000000E+000   0.000000000000E+000   9.606350000000E+001   9.787940000000E+001   9.892270000000E+001 
        1.000763000000E+002   1.010345000000E+002   1.029556000000E+002   1.066374000000E+002   1.105455000000E+002   1.091834000000E+002   1.093646000000E+002   1.101861000000E+002   1.110295000000E+002   1.123816000000E+002 
        1.129549000000E+002   1.131883000000E+002   1.135567000000E+002   1.142436000000E+002   1.143138000000E+002   1.149252000000E+002   1.152132000000E+002   1.151483000000E+002   1.152655000000E+002   1.154972000000E+002 
        1.176260000000E+002   1.184153000000E+002   1.184964000000E+002   1.190261000000E+002   1.197634000000E+002   1.203877000000E+002   1.202476000000E+002   1.205336000000E+002   1.207698000000E+002   1.196691000000E+002 
        1.202424000000E+002   1.195952000000E+002   1.177625000000E+002   1.142508000000E+002   1.131059000000E+002   1.114012000000E+002   1.092827000000E+002 
        0.000000000000E+000   0.000000000000E+000   0.000000000000E+000   0.000000000000E+000   0.000000000000E+000   0.000000000000E+000   0.000000000000E+000   0.000000000000E+000   0.000000000000E+000   0.000000000000E+000 
        0.000000000000E+000   0.000000000000E+000   0.000000000000E+000   0.000000000000E+000   9.645250000000E+001   9.686310000000E+001   9.689800000000E+001   9.719190000000E+001   9.836850000000E+001   9.935530000000E+001 
        1.004581000000E+002   1.089188000000E+002   1.079885000000E+002   1.088075000000E+002   1.101168000000E+002   1.111833000000E+002   1.123776000000E+002   1.126680000000E+002   1.129936000000E+002   1.131587000000E+002 
        1.137246000000E+002   1.139374000000E+002   1.137169000000E+002   1.146764000000E+002   1.151278000000E+002   1.161069000000E+002   1.159683000000E+002   1.158145000000E+002   1.161099000000E+002   1.163466000000E+002 
        1.175487000000E+002   1.188388000000E+002   1.190686000000E+002   1.195784000000E+002   1.202325000000E+002   1.206012000000E+002   1.211423000000E+002   1.208471000000E+002   1.209995000000E+002   1.192570000000E+002 
        1.189001000000E+002   1.193868000000E+002   1.155311000000E+002   1.134776000000E+002   1.116844000000E+002   1.092326000000E+002   1.087252000000E+002 
        0.000000000000E+000   0.000000000000E+000   0.000000000000E+000   0.000000000000E+000   0.000000000000E+000   0.000000000000E+000   0.000000000000E+000   0.000000000000E+000   0.000000000000E+000   0.000000000000E+000 
        0.000000000000E+000   0.000000000000E+000   0.000000000000E+000   0.000000000000E+000   9.731610000000E+001   9.903210000000E+001   9.784200000000E+001   9.764000000000E+001   9.869730000000E+001   9.925280000000E+001 
        1.030051000000E+002   1.058400000000E+002   1.097771000000E+002   1.104135000000E+002   1.111932000000E+002   1.124719000000E+002   1.132476000000E+002   1.131657000000E+002   1.132792000000E+002   1.136395000000E+002 
        1.141502000000E+002   1.144022000000E+002   1.144338000000E+002   1.147301000000E+002   1.161346000000E+002   1.169724000000E+002   1.167165000000E+002   1.166223000000E+002   1.163614000000E+002   1.167888000000E+002 
        1.175487000000E+002   1.183797000000E+002   1.190237000000E+002   1.196632000000E+002   1.198453000000E+002   1.202400000000E+002   1.203615000000E+002   1.188544000000E+002   1.186982000000E+002   1.182914000000E+002 
        1.178956000000E+002   1.159291000000E+002   1.144013000000E+002   1.125780000000E+002   1.102627000000E+002   1.082922000000E+002   0.000000000000E+000 
        0.000000000000E+000   0.000000000000E+000   0.000000000000E+000   0.000000000000E+000   0.000000000000E+000   0.000000000000E+000   0.000000000000E+000   0.000000000000E+000   0.000000000000E+000   0.000000000000E+000 
        0.000000000000E+000   0.000000000000E+000   0.000000000000E+000   9.878260000000E+001   9.921640000000E+001   9.984270000000E+001   9.835190000000E+001   9.795480000000E+001   9.873410000000E+001   1.001937000000E+002 
        1.054546000000E+002   1.058212000000E+002   1.095622000000E+002   1.106718000000E+002   1.121054000000E+002   1.136550000000E+002   1.142367000000E+002   1.136132000000E+002   1.135985000000E+002   1.140780000000E+002 
        1.144786000000E+002   1.144330000000E+002   1.141120000000E+002   1.149296000000E+002   1.168409000000E+002   1.170622000000E+002   1.160650000000E+002   1.168052000000E+002   1.168731000000E+002   1.172670000000E+002 
        1.175113000000E+002   1.176726000000E+002   1.184953000000E+002   1.190378000000E+002   1.194607000000E+002   1.196690000000E+002   1.198478000000E+002   1.196493000000E+002   1.191066000000E+002   1.168893000000E+002 
        1.156220000000E+002   1.148393000000E+002   1.132793000000E+002   1.115722000000E+002   1.085217000000E+002   0.000000000000E+000   0.000000000000E+000 
        0.000000000000E+000   0.000000000000E+000   0.000000000000E+000   0.000000000000E+000   0.000000000000E+000   0.000000000000E+000   0.000000000000E+000   0.000000000000E+000   0.000000000000E+000   0.000000000000E+000 
        0.000000000000E+000   0.000000000000E+000   0.000000000000E+000   9.975420000000E+001   1.000252000000E+002   1.002822000000E+002   9.861320000000E+001   9.841320000000E+001   1.005784000000E+002   1.077475000000E+002 
        1.076162000000E+002   1.083635000000E+002   1.095939000000E+002   1.110444000000E+002   1.135805000000E+002   1.148868000000E+002   1.151288000000E+002   1.139867000000E+002   1.133054000000E+002   1.141473000000E+002 
        1.145097000000E+002   1.144634000000E+002   1.124390000000E+002   1.157667000000E+002   1.168779000000E+002   1.170559000000E+002   1.169203000000E+002   1.159987000000E+002   1.170498000000E+002   1.173715000000E+002 
        1.172130000000E+002   1.171294000000E+002   1.178336000000E+002   1.186543000000E+002   1.189078000000E+002   1.193568000000E+002   1.188340000000E+002   1.183706000000E+002   1.158821000000E+002   1.148774000000E+002 
        1.142912000000E+002   1.137029000000E+002   1.110673000000E+002   1.102568000000E+002   0.000000000000E+000   0.000000000000E+000   0.000000000000E+000 
        0.000000000000E+000   0.000000000000E+000   0.000000000000E+000   0.000000000000E+000   0.000000000000E+000   0.000000000000E+000   0.000000000000E+000   0.000000000000E+000   0.000000000000E+000   0.000000000000E+000 
        0.000000000000E+000   0.000000000000E+000   1.003181000000E+002   1.002463000000E+002   1.007443000000E+002   1.007970000000E+002   9.898190000000E+001   9.996800000000E+001   1.092092000000E+002   1.075258000000E+002 
        1.084425000000E+002   1.095890000000E+002   1.118747000000E+002   1.140865000000E+002   1.152024000000E+002   1.159454000000E+002   1.160619000000E+002   1.151023000000E+002   1.136672000000E+002   1.141897000000E+002 