# Initial Conditions Package file created on 3/27/2023 by ModelMuse version 5.1.1.20.
BEGIN OPTIONS
END OPTIONS

BEGIN GRIDDATA
  STRT LAYERED
    INTERNAL IPRN     -1 # STRT Layer 1
       -1.000000000000E+020  -1.000000000000E+020  -1.000000000000E+020  -1.000000000000E+020  -1.000000000000E+020  -1.000000000000E+020  -1.000000000000E+020  -1.000000000000E+020  -1.000000000000E+020  -1.000000000000E+020 
       -1.000000000000E+020  -1.000000000000E+020  -1.000000000000E+020  -1.000000000000E+020  -1.000000000000E+020  -1.000000000000E+020  -1.000000000000E+020  -1.000000000000E+020  -1.000000000000E+020  -1.000000000000E+020 
       -1.000000000000E+020  -1.000000000000E+020  -1.000000000000E+020  -1.000000000000E+020  -1.000000000000E+020  -1.000000000000E+020  -1.000000000000E+020  -1.000000000000E+020  -1.000000000000E+020  -1.000000000000E+020 
       -1.000000000000E+020  -1.000000000000E+020  -1.000000000000E+020  -1.000000000000E+020  -1.000000000000E+020  -1.000000000000E+020  -1.000000000000E+020  -1.000000000000E+020  -1.000000000000E+020  -1.000000000000E+020 
       -1.000000000000E+020  -1.000000000000E+020  -1.000000000000E+020  -1.000000000000E+020  -1.000000000000E+020  -1.000000000000E+020  -1.000000000000E+020  -1.000000000000E+020  -1.000000000000E+020  -1.000000000000E+020 
       -1.000000000000E+020  -1.000000000000E+020  -1.000000000000E+020  -1.000000000000E+020  -1.000000000000E+020  -1.000000000000E+020  -1.000000000000E+020 
       -1.000000000000E+020  -1.000000000000E+020  -1.000000000000E+020  -1.000000000000E+020  -1.000000000000E+020  -1.000000000000E+020  -1.000000000000E+020  -1.000000000000E+020  -1.000000000000E+020  -1.000000000000E+020 
       -1.000000000000E+020  -1.000000000000E+020  -1.000000000000E+020  -1.000000000000E+020  -1.000000000000E+020  -1.000000000000E+020  -1.000000000000E+020  -1.000000000000E+020  -1.000000000000E+020  -1.000000000000E+020 
       -1.000000000000E+020  -1.000000000000E+020  -1.000000000000E+020  -1.000000000000E+020  -1.000000000000E+020  -1.000000000000E+020  -1.000000000000E+020  -1.000000000000E+020  -1.000000000000E+020  -1.000000000000E+020 
       -1.000000000000E+020  -1.000000000000E+020  -1.000000000000E+020  -1.000000000000E+020  -1.000000000000E+020  -1.000000000000E+020  -1.000000000000E+020  -1.000000000000E+020  -1.000000000000E+020  -1.000000000000E+020 
       -1.000000000000E+020   9.913766384125E-002   1.241004616022E-001   1.574357897043E-001   1.717579364777E-001   1.638497561216E-001  -1.000000000000E+020  -1.000000000000E+020  -1.000000000000E+020  -1.000000000000E+020 
       -1.000000000000E+020  -1.000000000000E+020  -1.000000000000E+020  -1.000000000000E+020  -1.000000000000E+020  -1.000000000000E+020  -1.000000000000E+020 
       -1.000000000000E+020  -1.000000000000E+020  -1.000000000000E+020  -1.000000000000E+020  -1.000000000000E+020  -1.000000000000E+020  -1.000000000000E+020  -1.000000000000E+020  -1.000000000000E+020  -1.000000000000E+020 
       -1.000000000000E+020  -1.000000000000E+020  -1.000000000000E+020  -1.000000000000E+020  -1.000000000000E+020  -1.000000000000E+020  -1.000000000000E+020  -1.000000000000E+020  -1.000000000000E+020  -1.000000000000E+020 
       -1.000000000000E+020  -1.000000000000E+020  -1.000000000000E+020  -1.000000000000E+020  -1.000000000000E+020  -1.000000000000E+020  -1.000000000000E+020  -1.000000000000E+020  -1.000000000000E+020  -1.000000000000E+020 
       -1.000000000000E+020  -1.000000000000E+020  -1.000000000000E+020  -1.000000000000E+020  -1.000000000000E+020  -1.000000000000E+020  -1.000000000000E+020  -1.000000000000E+020  -1.000000000000E+020   1.303715854883E-001 
        2.094960659742E-001   2.784834206104E-001   3.491461575031E-001   4.192021191120E-001   4.333990812302E-001   3.926378488541E-001   3.192082941532E-001   2.246088981628E-001  -1.000000000000E+020  -1.000000000000E+020 
       -1.000000000000E+020  -1.000000000000E+020  -1.000000000000E+020  -1.000000000000E+020  -1.000000000000E+020  -1.000000000000E+020  -1.000000000000E+020 
       -1.000000000000E+020  -1.000000000000E+020  -1.000000000000E+020  -1.000000000000E+020  -1.000000000000E+020  -1.000000000000E+020  -1.000000000000E+020  -1.000000000000E+020  -1.000000000000E+020  -1.000000000000E+020 
       -1.000000000000E+020  -1.000000000000E+020  -1.000000000000E+020  -1.000000000000E+020  -1.000000000000E+020  -1.000000000000E+020  -1.000000000000E+020  -1.000000000000E+020  -1.000000000000E+020  -1.000000000000E+020 
       -1.000000000000E+020  -1.000000000000E+020  -1.000000000000E+020  -1.000000000000E+020  -1.000000000000E+020  -1.000000000000E+020  -1.000000000000E+020  -1.000000000000E+020  -1.000000000000E+020  -1.000000000000E+020 
       -1.000000000000E+020  -1.000000000000E+020  -1.000000000000E+020  -1.000000000000E+020  -1.000000000000E+020  -1.000000000000E+020  -1.000000000000E+020  -1.000000000000E+020   1.936918944120E-001   2.879412472248E-001 
        5.013275146484E-001   7.503296136856E-001   8.988773822784E-001   9.453535079956E-001   9.128372669220E-001   8.291504383087E-001   7.046879529953E-001   5.313507318497E-001   4.092176258564E-001   2.994592189789E-001 
        1.855436265469E-001   1.321904361248E-001  -1.000000000000E+020  -1.000000000000E+020  -1.000000000000E+020  -1.000000000000E+020  -1.000000000000E+020 
       -1.000000000000E+020  -1.000000000000E+020  -1.000000000000E+020  -1.000000000000E+020  -1.000000000000E+020  -1.000000000000E+020  -1.000000000000E+020  -1.000000000000E+020  -1.000000000000E+020  -1.000000000000E+020 
       -1.000000000000E+020  -1.000000000000E+020  -1.000000000000E+020  -1.000000000000E+020  -1.000000000000E+020  -1.000000000000E+020  -1.000000000000E+020  -1.000000000000E+020  -1.000000000000E+020  -1.000000000000E+020 
       -1.000000000000E+020  -1.000000000000E+020  -1.000000000000E+020  -1.000000000000E+020  -1.000000000000E+020  -1.000000000000E+020  -1.000000000000E+020  -1.000000000000E+020  -1.000000000000E+020  -1.000000000000E+020 
       -1.000000000000E+020  -1.000000000000E+020  -1.000000000000E+020  -1.000000000000E+020  -1.000000000000E+020  -1.000000000000E+020  -1.000000000000E+020  -1.000000000000E+020   4.052852690220E-001   6.219219565392E-001 
        9.131960272789E-001   1.247442722321E+000   1.456079244614E+000   1.551084756851E+000   1.561853647232E+000   1.477608919144E+000   1.305010199547E+000   1.065038681030E+000   8.953020572662E-001   7.047849893570E-001 
        4.556744098663E-001   2.721236944199E-001   1.927899569273E-001  -1.000000000000E+020  -1.000000000000E+020  -1.000000000000E+020  -1.000000000000E+020 
       -1.000000000000E+020  -1.000000000000E+020  -1.000000000000E+020  -1.000000000000E+020  -1.000000000000E+020  -1.000000000000E+020  -1.000000000000E+020  -1.000000000000E+020  -1.000000000000E+020  -1.000000000000E+020 
       -1.000000000000E+020  -1.000000000000E+020  -1.000000000000E+020  -1.000000000000E+020  -1.000000000000E+020  -1.000000000000E+020  -1.000000000000E+020  -1.000000000000E+020  -1.000000000000E+020  -1.000000000000E+020 
       -1.000000000000E+020  -1.000000000000E+020  -1.000000000000E+020  -1.000000000000E+020  -1.000000000000E+020  -1.000000000000E+020  -1.000000000000E+020  -1.000000000000E+020  -1.000000000000E+020  -1.000000000000E+020 
       -1.000000000000E+020  -1.000000000000E+020  -1.000000000000E+020  -1.000000000000E+020  -1.000000000000E+020  -1.000000000000E+020  -1.000000000000E+020   5.134379863739E-001   6.596601009369E-001   9.115526080132E-001 
        1.215317010880E+000   1.646003007889E+000   1.924809813499E+000   2.058805227280E+000   2.081326246262E+000   1.949279069901E+000   1.763188242912E+000   1.588115453720E+000   1.498240590096E+000   1.309940695763E+000 
        1.021503806114E+000   5.959072709084E-001   3.353466391563E-001   2.277356088161E-001  -1.000000000000E+020  -1.000000000000E+020  -1.000000000000E+020 
       -1.000000000000E+020  -1.000000000000E+020  -1.000000000000E+020  -1.000000000000E+020  -1.000000000000E+020  -1.000000000000E+020  -1.000000000000E+020  -1.000000000000E+020  -1.000000000000E+020  -1.000000000000E+020 
       -1.000000000000E+020  -1.000000000000E+020  -1.000000000000E+020  -1.000000000000E+020  -1.000000000000E+020  -1.000000000000E+020  -1.000000000000E+020  -1.000000000000E+020  -1.000000000000E+020  -1.000000000000E+020 
       -1.000000000000E+020  -1.000000000000E+020  -1.000000000000E+020  -1.000000000000E+020  -1.000000000000E+020  -1.000000000000E+020  -1.000000000000E+020  -1.000000000000E+020  -1.000000000000E+020  -1.000000000000E+020 
       -1.000000000000E+020  -1.000000000000E+020  -1.000000000000E+020  -1.000000000000E+020  -1.000000000000E+020  -1.000000000000E+020   5.185676217079E-001   6.699030399323E-001   9.104655981064E-001   1.216815948486E+000 
        1.535921096802E+000   2.031070709229E+000   2.280683755875E+000   2.423751115799E+000   2.462388515472E+000   2.416449308395E+000   2.272690534592E+000   2.024185657501E+000   1.908296108246E+000   1.720914602280E+000 
        1.445845007896E+000   1.074329614639E+000   6.170719861984E-001   3.585961759090E-001   2.451559305191E-001  -1.000000000000E+020  -1.000000000000E+020 
       -1.000000000000E+020  -1.000000000000E+020  -1.000000000000E+020  -1.000000000000E+020  -1.000000000000E+020  -1.000000000000E+020  -1.000000000000E+020  -1.000000000000E+020  -1.000000000000E+020  -1.000000000000E+020 
       -1.000000000000E+020  -1.000000000000E+020  -1.000000000000E+020  -1.000000000000E+020  -1.000000000000E+020  -1.000000000000E+020  -1.000000000000E+020  -1.000000000000E+020  -1.000000000000E+020  -1.000000000000E+020 
       -1.000000000000E+020  -1.000000000000E+020  -1.000000000000E+020  -1.000000000000E+020  -1.000000000000E+020  -1.000000000000E+020  -1.000000000000E+020  -1.000000000000E+020  -1.000000000000E+020  -1.000000000000E+020 
       -1.000000000000E+020  -1.000000000000E+020  -1.000000000000E+020  -1.000000000000E+020  -1.000000000000E+020   5.164414048195E-001   6.657552123070E-001   9.043233990669E-001   1.213886141777E+000   1.607392787933E+000 
        1.992112994194E+000   2.383762359619E+000   2.617484807968E+000   2.762359380722E+000   2.815147638321E+000   2.785346031189E+000   2.687523603439E+000   2.543273687363E+000   2.380349874496E+000   2.194669723511E+000 
        1.920644760132E+000   1.473438858986E+000   9.461423754692E-001   5.804415345192E-001   3.689056336880E-001   2.653852999210E-001   2.104408144951E-001 
       -1.000000000000E+020  -1.000000000000E+020  -1.000000000000E+020  -1.000000000000E+020  -1.000000000000E+020  -1.000000000000E+020  -1.000000000000E+020  -1.000000000000E+020  -1.000000000000E+020  -1.000000000000E+020 
       -1.000000000000E+020  -1.000000000000E+020  -1.000000000000E+020  -1.000000000000E+020  -1.000000000000E+020  -1.000000000000E+020  -1.000000000000E+020  -1.000000000000E+020  -1.000000000000E+020  -1.000000000000E+020 
       -1.000000000000E+020  -1.000000000000E+020  -1.000000000000E+020  -1.000000000000E+020  -1.000000000000E+020  -1.000000000000E+020  -1.000000000000E+020  -1.000000000000E+020  -1.000000000000E+020  -1.000000000000E+020 
       -1.000000000000E+020  -1.000000000000E+020  -1.000000000000E+020  -1.000000000000E+020   5.331926345825E-001   6.725973486900E-001   9.032242894173E-001   1.202103018761E+000   1.570373773575E+000   1.997412323952E+000 
        2.437577247620E+000   2.745492696762E+000   2.957309007645E+000   3.074187755585E+000   3.123723030090E+000   3.104994773865E+000   3.023316860199E+000   2.898819446564E+000   2.734282970428E+000   2.522908449173E+000 
        2.244556903839E+000   1.795467019081E+000   1.303265571594E+000   8.406012058258E-001   5.541365742683E-001   4.036706089973E-001   3.412213623524E-001 
       -1.000000000000E+020  -1.000000000000E+020  -1.000000000000E+020  -1.000000000000E+020  -1.000000000000E+020  -1.000000000000E+020  -1.000000000000E+020  -1.000000000000E+020  -1.000000000000E+020  -1.000000000000E+020 
       -1.000000000000E+020  -1.000000000000E+020  -1.000000000000E+020  -1.000000000000E+020  -1.000000000000E+020  -1.000000000000E+020  -1.000000000000E+020  -1.000000000000E+020  -1.000000000000E+020  -1.000000000000E+020 
       -1.000000000000E+020  -1.000000000000E+020  -1.000000000000E+020  -1.000000000000E+020  -1.000000000000E+020  -1.000000000000E+020  -1.000000000000E+020  -1.000000000000E+020  -1.000000000000E+020  -1.000000000000E+020 
       -1.000000000000E+020  -1.000000000000E+020  -1.000000000000E+020   5.758260488510E-001   7.041551470757E-001   9.264410138130E-001   1.219596624374E+000   1.584885954857E+000   1.949163198471E+000   2.493906021118E+000 
        2.843714237213E+000   3.085628986359E+000   3.246414661407E+000   3.342089653015E+000   3.380320310593E+000   3.365563154221E+000   3.292337894440E+000   3.168690681458E+000   2.995415210724E+000   2.776296615601E+000 
        2.485009670258E+000   2.107738256454E+000   1.591528415680E+000   1.107583165169E+000   7.866920232773E-001   6.401904225349E-001   6.112630963326E-001 
       -1.000000000000E+020  -1.000000000000E+020  -1.000000000000E+020  -1.000000000000E+020  -1.000000000000E+020  -1.000000000000E+020  -1.000000000000E+020  -1.000000000000E+020  -1.000000000000E+020  -1.000000000000E+020 
       -1.000000000000E+020  -1.000000000000E+020  -1.000000000000E+020  -1.000000000000E+020  -1.000000000000E+020  -1.000000000000E+020  -1.000000000000E+020  -1.000000000000E+020  -1.000000000000E+020  -1.000000000000E+020 
       -1.000000000000E+020  -1.000000000000E+020  -1.000000000000E+020  -1.000000000000E+020  -1.000000000000E+020  -1.000000000000E+020  -1.000000000000E+020  -1.000000000000E+020  -1.000000000000E+020  -1.000000000000E+020 
       -1.000000000000E+020  -1.000000000000E+020   6.678239703178E-001   7.839508056641E-001   9.959293007851E-001   1.281435489655E+000   1.608889460564E+000   2.110249042511E+000   2.550282716751E+000   2.919065237045E+000 
        3.188112735748E+000   3.378373384476E+000   3.498442173004E+000   3.563232898712E+000   3.579423666000E+000   3.556944131851E+000   3.481066703796E+000   3.355129718781E+000   3.169958591461E+000   2.955399274826E+000 
        2.666044235229E+000   2.300696372986E+000   1.835004210472E+000   1.367849111557E+000   1.026669979095E+000   9.724963307381E-001   1.063621401787E+000 
       -1.000000000000E+020  -1.000000000000E+020  -1.000000000000E+020  -1.000000000000E+020  -1.000000000000E+020  -1.000000000000E+020  -1.000000000000E+020  -1.000000000000E+020  -1.000000000000E+020  -1.000000000000E+020 
       -1.000000000000E+020  -1.000000000000E+020  -1.000000000000E+020  -1.000000000000E+020  -1.000000000000E+020  -1.000000000000E+020  -1.000000000000E+020  -1.000000000000E+020  -1.000000000000E+020  -1.000000000000E+020 
       -1.000000000000E+020  -1.000000000000E+020  -1.000000000000E+020  -1.000000000000E+020  -1.000000000000E+020  -1.000000000000E+020  -1.000000000000E+020  -1.000000000000E+020  -1.000000000000E+020  -1.000000000000E+020 
        6.210698485374E-001   7.685191631317E-001   9.113281965256E-001   1.119448900223E+000   1.398509860039E+000   1.742527842522E+000   2.196743249893E+000   2.571397066116E+000   2.987106800079E+000   3.272153377533E+000 
        3.482412099838E+000   3.618770837784E+000   3.697952508926E+000   3.730906009674E+000   3.720201969147E+000   3.680870294571E+000   3.594945192337E+000   3.458487272263E+000   3.286606550217E+000   3.059210777283E+000 
        2.767380952835E+000   2.415716171265E+000   2.002189159393E+000   1.481486320496E+000   1.180642127991E+000   1.179098486900E+000   1.286182641983E+000 
       -1.000000000000E+020  -1.000000000000E+020  -1.000000000000E+020  -1.000000000000E+020  -1.000000000000E+020  -1.000000000000E+020  -1.000000000000E+020  -1.000000000000E+020  -1.000000000000E+020  -1.000000000000E+020 
       -1.000000000000E+020  -1.000000000000E+020  -1.000000000000E+020  -1.000000000000E+020  -1.000000000000E+020  -1.000000000000E+020  -1.000000000000E+020  -1.000000000000E+020  -1.000000000000E+020  -1.000000000000E+020 
       -1.000000000000E+020  -1.000000000000E+020  -1.000000000000E+020  -1.000000000000E+020  -1.000000000000E+020   2.907753288746E-001   3.804651796818E-001   4.897280037403E-001   6.131842136383E-001   7.587193250656E-001 
        8.957600593567E-001   1.098447680473E+000   1.310038566589E+000   1.573918461800E+000   1.927802562714E+000   2.315930128098E+000   2.724508285522E+000   3.060720205307E+000   3.368775606155E+000   3.582047939301E+000 
        3.720570802689E+000   3.802513360977E+000   3.841392278671E+000   3.831878662109E+000   3.779823303223E+000   3.728187561035E+000   3.622706174850E+000   3.460206747055E+000   3.250619411469E+000   3.013142824173E+000 
        2.757278680801E+000   2.423635482788E+000   2.017462253571E+000   1.549047112465E+000   1.267541408539E+000  -1.000000000000E+020  -1.000000000000E+020 
       -1.000000000000E+020  -1.000000000000E+020  -1.000000000000E+020  -1.000000000000E+020  -1.000000000000E+020  -1.000000000000E+020  -1.000000000000E+020  -1.000000000000E+020  -1.000000000000E+020  -1.000000000000E+020 
       -1.000000000000E+020  -1.000000000000E+020  -1.000000000000E+020  -1.000000000000E+020  -1.000000000000E+020  -1.000000000000E+020  -1.000000000000E+020  -1.000000000000E+020  -1.000000000000E+020  -1.000000000000E+020 
       -1.000000000000E+020  -1.000000000000E+020   2.309471666813E-001   3.275988399982E-001   4.784115254879E-001   5.689976215363E-001   6.652287840843E-001   7.781165838242E-001   9.180688261986E-001   1.108331918716E+000 
        1.332829356194E+000   1.626893281937E+000   1.857168555260E+000   2.155196428299E+000   2.534293651581E+000   2.907390832901E+000   3.241467475891E+000   3.496730089188E+000   3.692413091660E+000   3.821217298508E+000 
        3.897356987000E+000   3.931429624557E+000   3.927055120468E+000   3.860587835312E+000   3.716561555862E+000   3.696424722672E+000   3.563035249710E+000   3.356234550476E+000   3.099177837372E+000   2.833606243134E+000 
        2.580844163895E+000   2.302505970001E+000   1.968387246132E+000   1.581770539284E+000   1.295538544655E+000  -1.000000000000E+020  -1.000000000000E+020 
       -1.000000000000E+020  -1.000000000000E+020  -1.000000000000E+020  -1.000000000000E+020  -1.000000000000E+020  -1.000000000000E+020  -1.000000000000E+020  -1.000000000000E+020  -1.000000000000E+020  -1.000000000000E+020 
       -1.000000000000E+020  -1.000000000000E+020  -1.000000000000E+020  -1.000000000000E+020  -1.000000000000E+020  -1.000000000000E+020  -1.000000000000E+020  -1.000000000000E+020  -1.000000000000E+020  -1.000000000000E+020 
        1.946680247784E-001   3.080088198185E-001   4.707319438457E-001   6.920561194420E-001   8.651127219200E-001   9.694243073463E-001   1.075603604317E+000   1.211223483086E+000   1.379078865051E+000   1.638221859932E+000 
        1.927103638649E+000   2.178930044174E+000   2.473956584930E+000   2.841768741608E+000   3.154626131058E+000   3.440932035446E+000   3.670277118683E+000   3.832132577896E+000   3.939228534698E+000   3.995182752609E+000 
        4.011265754700E+000   4.009943962097E+000   3.968502044678E+000   3.846409797668E+000   3.690836191177E+000   3.631369352341E+000   3.441979885101E+000   3.150736808777E+000   2.801634550095E+000   2.472866058350E+000 
        2.271844148636E+000   2.079616785049E+000   1.827132940292E+000   1.472616910934E+000   1.084112286568E+000   7.435529232025E-001   5.062820911407E-001 
       -1.000000000000E+020  -1.000000000000E+020  -1.000000000000E+020  -1.000000000000E+020  -1.000000000000E+020  -1.000000000000E+020  -1.000000000000E+020  -1.000000000000E+020  -1.000000000000E+020  -1.000000000000E+020 
       -1.000000000000E+020  -1.000000000000E+020  -1.000000000000E+020  -1.000000000000E+020  -1.000000000000E+020  -1.000000000000E+020  -1.000000000000E+020  -1.000000000000E+020   1.214102730155E-001   1.995748877525E-001 
        3.706648945808E-001   6.770310401917E-001   9.865693449974E-001   1.210265755653E+000   1.392895817757E+000   1.483143687248E+000   1.624061107635E+000   1.816450595856E+000   1.977185845375E+000   2.206204414368E+000 
        2.609955072403E+000   2.940857648849E+000   3.156688213348E+000   3.411026954651E+000   3.644734382629E+000   3.853657007217E+000   4.003728389740E+000   4.092956066132E+000   4.122164726257E+000   4.102143764496E+000 
        4.058552742004E+000   4.050591468811E+000   4.001430511475E+000   3.895483016968E+000   3.739965677261E+000   3.547316074371E+000   3.256345272064E+000   2.846700668335E+000   2.257206916809E+000   1.811104297638E+000 
        1.787545442581E+000   1.763884305954E+000   1.654680013657E+000   1.437088012695E+000   1.106089711189E+000   6.904735565186E-001   4.668337404728E-001 
       -1.000000000000E+020  -1.000000000000E+020  -1.000000000000E+020  -1.000000000000E+020  -1.000000000000E+020  -1.000000000000E+020  -1.000000000000E+020  -1.000000000000E+020  -1.000000000000E+020  -1.000000000000E+020 
       -1.000000000000E+020  -1.000000000000E+020  -1.000000000000E+020  -1.000000000000E+020  -1.000000000000E+020  -1.000000000000E+020  -1.000000000000E+020  -1.000000000000E+020   1.992006748915E-001   4.000946283340E-001 
        7.394578456879E-001   1.127402067184E+000   1.576293826103E+000   1.838472008705E+000   1.978798270226E+000   2.214421272278E+000   2.517300367355E+000   2.612925767899E+000   2.786452054977E+000   3.052827596664E+000 
        3.297264337540E+000   3.522073507309E+000   3.700504064560E+000   3.877465486526E+000   4.023127555847E+000   4.161756515503E+000   4.251975059509E+000   4.285120964050E+000   4.253046035767E+000   4.153509616852E+000 
        4.008195877075E+000   4.062561511993E+000   4.013171195984E+000   3.889679908752E+000   3.689671754837E+000   3.405674934387E+000   2.999487161636E+000   2.452431201935E+000   1.693993926048E+000   3.344124555588E-001 
        1.122539758682E+000   1.370050191879E+000   1.422915220261E+000   1.262305259705E+000   8.758676648140E-001   5.226488113403E-001   3.247500658035E-001 
       -1.000000000000E+020  -1.000000000000E+020  -1.000000000000E+020  -1.000000000000E+020  -1.000000000000E+020  -1.000000000000E+020  -1.000000000000E+020  -1.000000000000E+020  -1.000000000000E+020  -1.000000000000E+020 
       -1.000000000000E+020  -1.000000000000E+020  -1.000000000000E+020  -1.000000000000E+020  -1.000000000000E+020  -1.000000000000E+020  -1.000000000000E+020   1.893204897642E-001   3.690941035748E-001   6.841210722923E-001 
        1.080451011658E+000   1.519422769547E+000   2.001611709595E+000   2.507938146591E+000   2.776734828949E+000   2.972539901733E+000   3.185476303101E+000   3.371022224426E+000   3.530763149261E+000   3.702264308929E+000 
        3.855340003967E+000   3.988438606262E+000   4.086425304413E+000   4.158064365387E+000   4.278078079224E+000   4.374148368835E+000   4.421472549438E+000   4.417481422424E+000   4.362625598907E+000   4.271050930023E+000 
        4.170537948608E+000   4.113883495331E+000   4.013028144836E+000   3.844305038452E+000   3.583704471588E+000   3.212685346603E+000   2.701429367065E+000   2.037140130997E+000   1.265783429146E+000   1.601878851652E-001 
        6.738747358322E-001   1.010768771172E+000   1.161049008369E+000   9.155504703522E-001   6.318135261536E-001   3.551561832428E-001   1.998496055603E-001 
       -1.000000000000E+020  -1.000000000000E+020  -1.000000000000E+020  -1.000000000000E+020  -1.000000000000E+020  -1.000000000000E+020  -1.000000000000E+020  -1.000000000000E+020  -1.000000000000E+020  -1.000000000000E+020 
       -1.000000000000E+020  -1.000000000000E+020  -1.000000000000E+020  -1.000000000000E+020   2.332706749439E-002   4.391482844949E-002   1.137338951230E-001   2.913616597652E-001   5.898173451424E-001   9.656586050987E-001 
        1.411578774452E+000   2.011306285858E+000   2.569331169128E+000   2.997340917587E+000   3.325229883194E+000   3.571778297424E+000   3.776973962784E+000   3.953441381454E+000   4.093585491180E+000   4.200362205505E+000 
        4.287082195282E+000   4.348031044006E+000   4.368205547333E+000   4.257028579712E+000   4.423824787140E+000   4.494387626648E+000   4.511608600616E+000   4.486631393433E+000   4.422097206116E+000   4.331068515778E+000 
        4.232264041901E+000   4.129111766815E+000   3.982770919800E+000   3.766600608826E+000   3.448618173599E+000   2.990525007248E+000   2.321155309677E+000   1.466455459595E+000   8.715499639511E-001   6.098337844014E-002 
        1.047713682055E-001   6.241447329521E-001   7.887693047523E-001   7.162092924118E-001   4.185816645622E-001   2.092823386192E-001   1.150512099266E-001 
       -1.000000000000E+020  -1.000000000000E+020  -1.000000000000E+020  -1.000000000000E+020  -1.000000000000E+020  -1.000000000000E+020  -1.000000000000E+020  -1.000000000000E+020  -1.000000000000E+020  -1.000000000000E+020 
       -1.000000000000E+020  -1.000000000000E+020  -1.000000000000E+020  -1.000000000000E+020   3.189012035728E-002   7.156813144684E-002   2.048660665751E-001   4.977036118507E-001   8.589795231819E-001   1.281386256218E+000 
        1.757562875748E+000   2.372546911240E+000   2.989838361740E+000   3.442516565323E+000   3.785973787308E+000   4.042968273163E+000   4.247484683990E+000   4.398241043091E+000   4.500269412994E+000   4.567790508270E+000 
        4.599999427795E+000   4.598666667938E+000   4.568016529083E+000   4.515470504761E+000   4.533309459686E+000   4.535295009613E+000   4.516203880310E+000   4.476144313812E+000   4.409087657928E+000   4.321896553040E+000 
        4.219727993011E+000   4.091033935547E+000   3.913444519043E+000   3.665772676468E+000   3.308832406998E+000   2.790030717850E+000   1.942057967186E+000   3.559112548828E-001   1.979004144669E-001   7.168304920197E-002 
        1.778686046600E-001   3.378322422504E-001   3.934257328510E-001   3.448464274406E-001   2.157749235630E-001   1.121004968882E-001  -1.000000000000E+020 
       -1.000000000000E+020  -1.000000000000E+020  -1.000000000000E+020  -1.000000000000E+020  -1.000000000000E+020  -1.000000000000E+020  -1.000000000000E+020  -1.000000000000E+020  -1.000000000000E+020  -1.000000000000E+020 
       -1.000000000000E+020  -1.000000000000E+020  -1.000000000000E+020   2.971632219851E-002   5.583335831761E-002   1.539696156979E-001   4.101859331131E-001   7.979673743248E-001   1.229295253754E+000   1.683612823486E+000 
        2.131645202637E+000   2.783579587936E+000   3.379719495773E+000   3.808973312378E+000   4.163381099701E+000   4.413052082062E+000   4.599349498749E+000   4.721898555756E+000   4.780516147614E+000   4.813179969788E+000 
        4.805407047272E+000   4.742637157440E+000   4.651737213135E+000   4.584633827209E+000   4.534492969513E+000   4.488620281219E+000   4.415684223175E+000   4.370271682739E+000   4.303179740906E+000   4.232073783875E+000 
        4.136252880096E+000   4.001371383667E+000   3.809497594833E+000   3.547692060471E+000   3.184414625168E+000   2.701884746552E+000   2.062614679337E+000   1.291078090668E+000   8.330962657928E-001   5.073396563530E-001 
        3.053112328053E-001   2.485564649105E-001   2.163405418396E-001   1.675658524036E-001   9.224755316973E-002  -1.000000000000E+020  -1.000000000000E+020 
       -1.000000000000E+020  -1.000000000000E+020  -1.000000000000E+020  -1.000000000000E+020  -1.000000000000E+020  -1.000000000000E+020  -1.000000000000E+020  -1.000000000000E+020  -1.000000000000E+020  -1.000000000000E+020 
       -1.000000000000E+020  -1.000000000000E+020  -1.000000000000E+020   5.461078509688E-002   1.220725178719E-001   3.291088342667E-001   7.498643994331E-001   1.243439555168E+000   1.734388232231E+000   2.325006961823E+000 
        2.770494461060E+000   3.306630373001E+000   3.764588832855E+000   4.117495059967E+000   4.450513839722E+000   4.690969467163E+000   4.857407093048E+000   4.931577205658E+000   4.927552223206E+000   4.946183681488E+000 
        4.898461818695E+000   4.769697666168E+000   4.587418556213E+000   4.499457836151E+000   4.410781383514E+000   4.353327274323E+000   4.282205104828E+000   4.162236213684E+000   4.088712215424E+000   4.062866687775E+000 
        3.981470823288E+000   3.851794719696E+000   3.660729169846E+000   3.390623092651E+000   3.024872541428E+000   2.585062265396E+000   2.066381216049E+000   1.547868371010E+000   1.020191192627E+000   6.470658183098E-001 
        3.506277799606E-001   2.096886187792E-001   1.249754950404E-001   8.907002210617E-002  -1.000000000000E+020  -1.000000000000E+020  -1.000000000000E+020 
       -1.000000000000E+020  -1.000000000000E+020  -1.000000000000E+020  -1.000000000000E+020  -1.000000000000E+020  -1.000000000000E+020  -1.000000000000E+020  -1.000000000000E+020  -1.000000000000E+020  -1.000000000000E+020 
       -1.000000000000E+020  -1.000000000000E+020   7.063536345959E-002   1.205526888371E-001   2.793215513229E-001   6.521412134171E-001   1.318502306938E+000   1.863056302071E+000   2.444615840912E+000   2.873287677765E+000 
        3.286625385284E+000   3.724080324173E+000   4.105735778809E+000   4.419468402863E+000   4.691931247711E+000   4.889683246613E+000   5.024038791656E+000   5.078407287598E+000   5.039867401123E+000   5.023596763611E+000 
        4.911383152008E+000   4.700333118439E+000   4.383913040161E+000   4.279243946075E+000   4.136467456818E+000   4.106244564056E+000   4.064736843109E+000   3.927974939346E+000   3.809343338013E+000   3.810561418533E+000 
        3.746658325195E+000   3.633471965790E+000   3.458411693573E+000   3.199271202087E+000   2.852529048920E+000   2.347744941711E+000   1.866561770439E+000   1.447711586952E+000   1.017829060555E+000   5.796603560448E-001 