# Discretization File created on 3/27/2023 by ModelMuse version 5.1.1.20.
# Upper left corner: (2432563.33613387, 333368.086684879)
# Lower left corner: (2439979.74399887, 310542.730293795)
# Upper right corner: (2459668.44684829, 342175.071024564)
# Lower right corner: (2467084.85471328, 319349.714633481)
# Grid angle (in degrees counterclockwise): 18
# Number of active cells = 2781.
BEGIN OPTIONS
  LENGTH_UNITS FEET
  XORIGIN  2.439979743999E+006 
  YORIGIN  3.105427302938E+005 
  ANGROT  1.800000000000E+001 
END OPTIONS

BEGIN DIMENSIONS
  NLAY      5
  NROW     48
  NCOL     57
END DIMENSIONS


BEGIN GRIDDATA
  DELR IPRN    -1
    CONSTANT   5.000000000000E+002  # DELR

  DELC IPRN    -1
    CONSTANT   5.000000000000E+002  # DELC

  TOP LAYERED
    INTERNAL IPRN     -1 # TOP
        0.000000000000E+000   0.000000000000E+000   0.000000000000E+000   0.000000000000E+000   0.000000000000E+000   0.000000000000E+000   0.000000000000E+000   0.000000000000E+000   0.000000000000E+000   0.000000000000E+000 
        0.000000000000E+000   0.000000000000E+000   0.000000000000E+000   0.000000000000E+000   0.000000000000E+000   0.000000000000E+000   0.000000000000E+000   0.000000000000E+000   0.000000000000E+000   0.000000000000E+000 
        0.000000000000E+000   0.000000000000E+000   0.000000000000E+000   0.000000000000E+000   0.000000000000E+000   0.000000000000E+000   0.000000000000E+000   0.000000000000E+000   0.000000000000E+000   0.000000000000E+000 
        0.000000000000E+000   0.000000000000E+000   0.000000000000E+000   0.000000000000E+000   0.000000000000E+000   0.000000000000E+000   0.000000000000E+000   0.000000000000E+000   0.000000000000E+000   0.000000000000E+000 
        0.000000000000E+000   0.000000000000E+000   0.000000000000E+000   0.000000000000E+000   0.000000000000E+000   0.000000000000E+000   0.000000000000E+000   0.000000000000E+000   0.000000000000E+000   0.000000000000E+000 
        0.000000000000E+000   0.000000000000E+000   0.000000000000E+000   0.000000000000E+000   0.000000000000E+000   0.000000000000E+000   0.000000000000E+000 
        0.000000000000E+000   0.000000000000E+000   0.000000000000E+000   0.000000000000E+000   0.000000000000E+000   0.000000000000E+000   0.000000000000E+000   0.000000000000E+000   0.000000000000E+000   0.000000000000E+000 
        0.000000000000E+000   0.000000000000E+000   0.000000000000E+000   0.000000000000E+000   0.000000000000E+000   0.000000000000E+000   0.000000000000E+000   0.000000000000E+000   0.000000000000E+000   0.000000000000E+000 
        0.000000000000E+000   0.000000000000E+000   0.000000000000E+000   0.000000000000E+000   0.000000000000E+000   0.000000000000E+000   0.000000000000E+000   0.000000000000E+000   0.000000000000E+000   0.000000000000E+000 
        0.000000000000E+000   0.000000000000E+000   0.000000000000E+000   0.000000000000E+000   0.000000000000E+000   0.000000000000E+000   0.000000000000E+000   0.000000000000E+000   0.000000000000E+000   0.000000000000E+000 
        0.000000000000E+000  -5.936817642200E+001  -5.685781478870E+001  -5.440372055040E+001  -5.258024780280E+001  -5.295251098620E+001   0.000000000000E+000   0.000000000000E+000   0.000000000000E+000   0.000000000000E+000 
        0.000000000000E+000   0.000000000000E+000   0.000000000000E+000   0.000000000000E+000   0.000000000000E+000   0.000000000000E+000   0.000000000000E+000 
        0.000000000000E+000   0.000000000000E+000   0.000000000000E+000   0.000000000000E+000   0.000000000000E+000   0.000000000000E+000   0.000000000000E+000   0.000000000000E+000   0.000000000000E+000   0.000000000000E+000 
        0.000000000000E+000   0.000000000000E+000   0.000000000000E+000   0.000000000000E+000   0.000000000000E+000   0.000000000000E+000   0.000000000000E+000   0.000000000000E+000   0.000000000000E+000   0.000000000000E+000 
        0.000000000000E+000   0.000000000000E+000   0.000000000000E+000   0.000000000000E+000   0.000000000000E+000   0.000000000000E+000   0.000000000000E+000   0.000000000000E+000   0.000000000000E+000   0.000000000000E+000 
        0.000000000000E+000   0.000000000000E+000   0.000000000000E+000   0.000000000000E+000   0.000000000000E+000   0.000000000000E+000   0.000000000000E+000   0.000000000000E+000   0.000000000000E+000  -5.364555587760E+001 
       -5.329881134050E+001  -5.157251464840E+001  -5.004154914870E+001  -4.225916908260E+001  -3.003890625000E+001  -2.185344699860E+001  -2.342558078770E+001  -2.476163112640E+001   0.000000000000E+000   0.000000000000E+000 
        0.000000000000E+000   0.000000000000E+000   0.000000000000E+000   0.000000000000E+000   0.000000000000E+000   0.000000000000E+000   0.000000000000E+000 
        0.000000000000E+000   0.000000000000E+000   0.000000000000E+000   0.000000000000E+000   0.000000000000E+000   0.000000000000E+000   0.000000000000E+000   0.000000000000E+000   0.000000000000E+000   0.000000000000E+000 
        0.000000000000E+000   0.000000000000E+000   0.000000000000E+000   0.000000000000E+000   0.000000000000E+000   0.000000000000E+000   0.000000000000E+000   0.000000000000E+000   0.000000000000E+000   0.000000000000E+000 
        0.000000000000E+000   0.000000000000E+000   0.000000000000E+000   0.000000000000E+000   0.000000000000E+000   0.000000000000E+000   0.000000000000E+000   0.000000000000E+000   0.000000000000E+000   0.000000000000E+000 
        0.000000000000E+000   0.000000000000E+000   0.000000000000E+000   0.000000000000E+000   0.000000000000E+000   0.000000000000E+000   0.000000000000E+000   0.000000000000E+000  -5.402118484480E+001  -5.119375137320E+001 
       -4.610833686820E+001  -3.274308509830E+001  -2.641406669620E+001  -2.276927173610E+001  -2.129703384400E+001  -2.129941898350E+001  -2.362854129790E+001  -2.846168937680E+001  -2.837755729680E+001  -2.740512733460E+001 
       -2.537624011990E+001  -1.893293052670E+001   0.000000000000E+000   0.000000000000E+000   0.000000000000E+000   0.000000000000E+000   0.000000000000E+000 
        0.000000000000E+000   0.000000000000E+000   0.000000000000E+000   0.000000000000E+000   0.000000000000E+000   0.000000000000E+000   0.000000000000E+000   0.000000000000E+000   0.000000000000E+000   0.000000000000E+000 
        0.000000000000E+000   0.000000000000E+000   0.000000000000E+000   0.000000000000E+000   0.000000000000E+000   0.000000000000E+000   0.000000000000E+000   0.000000000000E+000   0.000000000000E+000   0.000000000000E+000 
        0.000000000000E+000   0.000000000000E+000   0.000000000000E+000   0.000000000000E+000   0.000000000000E+000   0.000000000000E+000   0.000000000000E+000   0.000000000000E+000   0.000000000000E+000   0.000000000000E+000 
        0.000000000000E+000   0.000000000000E+000   0.000000000000E+000   0.000000000000E+000   0.000000000000E+000   0.000000000000E+000   0.000000000000E+000   0.000000000000E+000  -4.278880142200E+001  -4.144749282850E+001 
       -2.827269561770E+001  -1.122275684360E+001  -1.016438913340E+001  -1.156582592010E+001  -1.003506765370E+001  -1.593791950230E+001  -1.714211151120E+001  -1.884825729370E+001  -2.042800006870E+001  -2.150394664760E+001 
       -2.000097095490E+001  -1.797794414520E+001  -1.516027332300E+001   0.000000000000E+000   0.000000000000E+000   0.000000000000E+000   0.000000000000E+000 
        0.000000000000E+000   0.000000000000E+000   0.000000000000E+000   0.000000000000E+000   0.000000000000E+000   0.000000000000E+000   0.000000000000E+000   0.000000000000E+000   0.000000000000E+000   0.000000000000E+000 
        0.000000000000E+000   0.000000000000E+000   0.000000000000E+000   0.000000000000E+000   0.000000000000E+000   0.000000000000E+000   0.000000000000E+000   0.000000000000E+000   0.000000000000E+000   0.000000000000E+000 
        0.000000000000E+000   0.000000000000E+000   0.000000000000E+000   0.000000000000E+000   0.000000000000E+000   0.000000000000E+000   0.000000000000E+000   0.000000000000E+000   0.000000000000E+000   0.000000000000E+000 
        0.000000000000E+000   0.000000000000E+000   0.000000000000E+000   0.000000000000E+000   0.000000000000E+000   0.000000000000E+000   0.000000000000E+000  -3.299985122690E+001  -3.324531257640E+001  -3.308992347710E+001 
       -1.451027198790E+001   6.346800125130E+001   6.189360275260E+001   5.553040100110E+001   5.434959899890E+001   3.903199874870E+001   3.001199874880E+001  -8.934699592600E+000  -1.292608425140E+001  -1.290788368230E+001 
       -1.286894882200E+001  -2.000658893590E+001  -1.725407699580E+001  -1.555264518740E+001   0.000000000000E+000   0.000000000000E+000   0.000000000000E+000 
        0.000000000000E+000   0.000000000000E+000   0.000000000000E+000   0.000000000000E+000   0.000000000000E+000   0.000000000000E+000   0.000000000000E+000   0.000000000000E+000   0.000000000000E+000   0.000000000000E+000 
        0.000000000000E+000   0.000000000000E+000   0.000000000000E+000   0.000000000000E+000   0.000000000000E+000   0.000000000000E+000   0.000000000000E+000   0.000000000000E+000   0.000000000000E+000   0.000000000000E+000 
        0.000000000000E+000   0.000000000000E+000   0.000000000000E+000   0.000000000000E+000   0.000000000000E+000   0.000000000000E+000   0.000000000000E+000   0.000000000000E+000   0.000000000000E+000   0.000000000000E+000 
        0.000000000000E+000   0.000000000000E+000   0.000000000000E+000   0.000000000000E+000   0.000000000000E+000   0.000000000000E+000  -3.067879615790E+001  -3.107444778440E+001  -3.222019996640E+001  -2.470615669250E+001 
        3.903200187700E+000   7.393120300280E+001   7.412800125130E+001   5.920399749770E+001   6.048320175180E+001   5.425120300280E+001   5.290639724740E+001   4.241040100110E+001   3.913040100110E+001   3.909760025030E+001 
        3.404640037520E+001  -1.459109302520E+001  -2.471930702210E+001  -2.201993598940E+001  -2.248179908750E+001   0.000000000000E+000   0.000000000000E+000 
        0.000000000000E+000   0.000000000000E+000   0.000000000000E+000   0.000000000000E+000   0.000000000000E+000   0.000000000000E+000   0.000000000000E+000   0.000000000000E+000   0.000000000000E+000   0.000000000000E+000 
        0.000000000000E+000   0.000000000000E+000   0.000000000000E+000   0.000000000000E+000   0.000000000000E+000   0.000000000000E+000   0.000000000000E+000   0.000000000000E+000   0.000000000000E+000   0.000000000000E+000 
        0.000000000000E+000   0.000000000000E+000   0.000000000000E+000   0.000000000000E+000   0.000000000000E+000   0.000000000000E+000   0.000000000000E+000   0.000000000000E+000   0.000000000000E+000   0.000000000000E+000 
        0.000000000000E+000   0.000000000000E+000   0.000000000000E+000   0.000000000000E+000   0.000000000000E+000  -3.029822486880E+001  -3.052925651550E+001  -3.129351150510E+001  -2.950522308350E+001  -1.134520442960E+001 
        6.166399749770E+001   7.544000000000E+001   7.209439849840E+001   5.582560150160E+001   5.930239974970E+001   5.349679824820E+001   5.375919799790E+001   4.185280075080E+001   4.014719924920E+001   3.991760025030E+001 
        3.581760025030E+001  -9.429361877400E+000  -1.808778881070E+001  -2.293194293980E+001  -2.188341529850E+001  -2.167688255310E+001  -2.212408603670E+001 
        0.000000000000E+000   0.000000000000E+000   0.000000000000E+000   0.000000000000E+000   0.000000000000E+000   0.000000000000E+000   0.000000000000E+000   0.000000000000E+000   0.000000000000E+000   0.000000000000E+000 
        0.000000000000E+000   0.000000000000E+000   0.000000000000E+000   0.000000000000E+000   0.000000000000E+000   0.000000000000E+000   0.000000000000E+000   0.000000000000E+000   0.000000000000E+000   0.000000000000E+000 
        0.000000000000E+000   0.000000000000E+000   0.000000000000E+000   0.000000000000E+000   0.000000000000E+000   0.000000000000E+000   0.000000000000E+000   0.000000000000E+000   0.000000000000E+000   0.000000000000E+000 
        0.000000000000E+000   0.000000000000E+000   0.000000000000E+000   0.000000000000E+000  -2.673566482540E+001  -2.717361709590E+001  -2.912099510190E+001  -2.941718719480E+001  -1.840044071200E+001   2.400960056300E+001 
        6.297600250230E+001   6.468159774800E+001   6.392719924920E+001   5.940080200210E+001   4.811760025030E+001   4.798640037520E+001   3.886800125130E+001   3.886800125130E+001   4.224640037520E+001   3.614560150160E+001 
        3.158640037540E+001   1.840079887390E+001  -9.436661968200E+000  -1.728745956420E+001  -2.034315166470E+001  -2.092494113920E+001  -2.139456806180E+001 
        0.000000000000E+000   0.000000000000E+000   0.000000000000E+000   0.000000000000E+000   0.000000000000E+000   0.000000000000E+000   0.000000000000E+000   0.000000000000E+000   0.000000000000E+000   0.000000000000E+000 
        0.000000000000E+000   0.000000000000E+000   0.000000000000E+000   0.000000000000E+000   0.000000000000E+000   0.000000000000E+000   0.000000000000E+000   0.000000000000E+000   0.000000000000E+000   0.000000000000E+000 
        0.000000000000E+000   0.000000000000E+000   0.000000000000E+000   0.000000000000E+000   0.000000000000E+000   0.000000000000E+000   0.000000000000E+000   0.000000000000E+000   0.000000000000E+000   0.000000000000E+000 
        0.000000000000E+000   0.000000000000E+000   0.000000000000E+000  -2.609009437560E+001  -2.615185462950E+001  -2.702616073610E+001  -2.820810134890E+001  -1.641893722530E+001   3.739199953100E+000   5.799040100110E+001 
        5.638320175180E+001   5.398879699720E+001   6.415679824820E+001   6.094239974970E+001   4.910160087580E+001   4.359119987500E+001   4.355839912420E+001   3.706400062550E+001   3.414479949950E+001   3.483359962480E+001 
        3.391520050050E+001   2.660079887390E+001   1.597359962460E+001  -1.967998368000E-001  -8.863659191100E+000  -1.227676092150E+001  -1.517850986480E+001 
        0.000000000000E+000   0.000000000000E+000   0.000000000000E+000   0.000000000000E+000   0.000000000000E+000   0.000000000000E+000   0.000000000000E+000   0.000000000000E+000   0.000000000000E+000   0.000000000000E+000 
        0.000000000000E+000   0.000000000000E+000   0.000000000000E+000   0.000000000000E+000   0.000000000000E+000   0.000000000000E+000   0.000000000000E+000   0.000000000000E+000   0.000000000000E+000   0.000000000000E+000 
        0.000000000000E+000   0.000000000000E+000   0.000000000000E+000   0.000000000000E+000   0.000000000000E+000   0.000000000000E+000   0.000000000000E+000   0.000000000000E+000   0.000000000000E+000   0.000000000000E+000 
        0.000000000000E+000   0.000000000000E+000  -2.463443202970E+001  -2.485630161290E+001  -2.690738235470E+001  -2.587697238920E+001  -8.627460002900E+000   5.999120300280E+001   6.409120300280E+001   6.268080200210E+001 
        5.785919799790E+001   6.084399749770E+001   5.402159774800E+001   5.188959899890E+001   4.601839912420E+001   4.395199874870E+001   4.342719924920E+001   3.575199874870E+001   3.306239974970E+001   3.122560150150E+001 
        3.155359962460E+001   2.204159931180E+001   1.256239974980E+001   1.056159931180E+001   1.033200031280E+001   1.013519971850E+001   8.167200031300E+000 
        0.000000000000E+000   0.000000000000E+000   0.000000000000E+000   0.000000000000E+000   0.000000000000E+000   0.000000000000E+000   0.000000000000E+000   0.000000000000E+000   0.000000000000E+000   0.000000000000E+000 
        0.000000000000E+000   0.000000000000E+000   0.000000000000E+000   0.000000000000E+000   0.000000000000E+000   0.000000000000E+000   0.000000000000E+000   0.000000000000E+000   0.000000000000E+000   0.000000000000E+000 
        0.000000000000E+000   0.000000000000E+000   0.000000000000E+000   0.000000000000E+000   0.000000000000E+000   0.000000000000E+000   0.000000000000E+000   0.000000000000E+000   0.000000000000E+000   0.000000000000E+000 
       -2.308116821290E+001  -2.335984790800E+001  -2.346252620700E+001  -2.457439533230E+001  -2.631722846990E+001  -1.135489904410E+001   6.300879699720E+001   7.193040100110E+001   6.487840225200E+001   5.431679824820E+001 
        4.946239974970E+001   5.339840225200E+001   5.359520050050E+001   4.985599937450E+001   4.742880012500E+001   4.382079887400E+001   4.139359962480E+001   3.650640037520E+001   3.306239974970E+001   2.929040100100E+001 
        2.653520050050E+001   2.135280075070E+001   1.462880012510E+001   6.428800125100E+000   8.462399749800E+000   9.971199874900E+000   1.020079965590E+001 
        0.000000000000E+000   0.000000000000E+000   0.000000000000E+000   0.000000000000E+000   0.000000000000E+000   0.000000000000E+000   0.000000000000E+000   0.000000000000E+000   0.000000000000E+000   0.000000000000E+000 
        0.000000000000E+000   0.000000000000E+000   0.000000000000E+000   0.000000000000E+000   0.000000000000E+000   0.000000000000E+000   0.000000000000E+000   0.000000000000E+000   0.000000000000E+000   0.000000000000E+000 
        0.000000000000E+000   0.000000000000E+000   0.000000000000E+000   0.000000000000E+000   0.000000000000E+000  -3.015225433350E+001  -2.697253341670E+001  -2.497911048890E+001  -2.396930343630E+001  -2.322686347960E+001 
       -2.303081127170E+001  -2.421515422820E+001  -2.509316551210E+001  -2.108316112520E+001  -1.331915523530E+001   5.270959899890E+001   6.878159774800E+001   6.058159774800E+001   5.238160087580E+001   4.965920112600E+001 
        4.969199874870E+001   5.070880012500E+001   5.198800125130E+001   4.916719924920E+001   4.854400062550E+001   4.450959899890E+001   3.863839912420E+001   3.358719924920E+001   3.191439849850E+001   3.070079887390E+001 
        2.505919956210E+001   2.079520050050E+001   1.252959978100E+001   7.806400375400E+000   4.067200031300E+000   0.000000000000E+000   0.000000000000E+000 
        0.000000000000E+000   0.000000000000E+000   0.000000000000E+000   0.000000000000E+000   0.000000000000E+000   0.000000000000E+000   0.000000000000E+000   0.000000000000E+000   0.000000000000E+000   0.000000000000E+000 
        0.000000000000E+000   0.000000000000E+000   0.000000000000E+000   0.000000000000E+000   0.000000000000E+000   0.000000000000E+000   0.000000000000E+000   0.000000000000E+000   0.000000000000E+000   0.000000000000E+000 
        0.000000000000E+000   0.000000000000E+000  -3.480733024580E+001  -3.168357643130E+001  -2.860350898740E+001  -2.542877731320E+001  -2.464533954620E+001  -2.485219135280E+001  -2.458795700070E+001  -2.482267349240E+001 
       -2.686529754640E+001  -2.622897205350E+001  -1.543786289220E+001  -6.333217029600E+000   4.624800125130E+001   5.234880012500E+001   5.284080200210E+001   4.739599937450E+001   4.815040100110E+001   5.047920112600E+001 
        4.952800125130E+001   5.024959899890E+001   4.900319862370E+001   4.723199874870E+001   4.552640037520E+001   4.467359962480E+001   3.958959899890E+001   3.066800125120E+001   3.266880012510E+001   3.122560150150E+001 
        2.765040100100E+001   2.197599937440E+001   1.535039943700E+001   7.314400062500E+000   9.315198936500E+000   0.000000000000E+000   0.000000000000E+000 
        0.000000000000E+000   0.000000000000E+000   0.000000000000E+000   0.000000000000E+000   0.000000000000E+000   0.000000000000E+000   0.000000000000E+000   0.000000000000E+000   0.000000000000E+000   0.000000000000E+000 
        0.000000000000E+000   0.000000000000E+000   0.000000000000E+000   0.000000000000E+000   0.000000000000E+000   0.000000000000E+000   0.000000000000E+000   0.000000000000E+000   0.000000000000E+000   0.000000000000E+000 
       -3.901279876720E+001  -3.483422523490E+001  -3.146402473450E+001  -2.765078262330E+001  -2.556294414520E+001  -2.455689388270E+001  -2.458047626490E+001  -2.498690246580E+001  -2.760449684140E+001  -2.541313705440E+001 
       -2.279994228360E+001  -3.840526933700E+000   5.976159774800E+001   5.185680137630E+001   5.113520050050E+001   4.300079887400E+001   4.247599937450E+001   4.444400062550E+001   4.801920112600E+001   4.667439849840E+001 
        4.473920112600E+001   4.496880012500E+001   4.447680137630E+001   4.651040100110E+001   4.424719924920E+001   4.628079887400E+001   3.926160087580E+001   3.138959899900E+001   2.978239974980E+001   2.883119987490E+001 
        2.863439849850E+001   2.381280075070E+001   1.781039943700E+001   9.446400375400E+000   7.117599468200E+000   7.576797466300E+000   6.756799030300E+000 
        0.000000000000E+000   0.000000000000E+000   0.000000000000E+000   0.000000000000E+000   0.000000000000E+000   0.000000000000E+000   0.000000000000E+000   0.000000000000E+000   0.000000000000E+000   0.000000000000E+000 
        0.000000000000E+000   0.000000000000E+000   0.000000000000E+000   0.000000000000E+000   0.000000000000E+000   0.000000000000E+000   0.000000000000E+000   0.000000000000E+000  -4.524973045350E+001  -3.741472404470E+001 
       -3.393852012630E+001  -2.932552276610E+001  -2.549804019930E+001  -2.470330390930E+001  -2.300938880920E+001  -1.377297611240E+001  -1.385110389710E+001  -1.458732372280E+001  -1.276338958740E+001   4.952799968700E+000 
        4.359119987500E+001   4.050800125130E+001   5.270959899890E+001   4.637920112600E+001   3.716239974970E+001   3.463680137630E+001   4.021280075080E+001   4.113119987500E+001   4.477199874870E+001   4.460800125130E+001 
        4.480479949950E+001   4.050800125130E+001   4.077040100110E+001   4.224640037520E+001   4.080319862370E+001   4.070479949950E+001   3.808079887400E+001   3.424319862370E+001   3.178319862360E+001   2.604320018770E+001 
        2.456719924930E+001   2.420640037540E+001   1.951599937440E+001   1.213600015640E+001   1.197199953080E+001  -1.749009280200E+000  -5.285546865500E+000 
        0.000000000000E+000   0.000000000000E+000   0.000000000000E+000   0.000000000000E+000   0.000000000000E+000   0.000000000000E+000   0.000000000000E+000   0.000000000000E+000   0.000000000000E+000   0.000000000000E+000 
        0.000000000000E+000   0.000000000000E+000   0.000000000000E+000   0.000000000000E+000   0.000000000000E+000   0.000000000000E+000   0.000000000000E+000   0.000000000000E+000  -3.718303237920E+001  -3.403776695240E+001 
       -2.813678176880E+001  -2.418969032290E+001  -2.221690940860E+001  -1.221362979890E+001  -5.727575769400E+000   5.300479949950E+001   5.881040100110E+001   5.743280075080E+001   5.867919799790E+001   4.867520050050E+001 
        4.408319862370E+001   4.080319862370E+001   3.870400062550E+001   3.112719924930E+001   3.280000000000E+001   3.325920112600E+001   3.581760025030E+001   4.031119987500E+001   4.096719924920E+001   4.382079887400E+001 
        4.188560150160E+001   3.696560150160E+001   3.978640037520E+001   4.080319862370E+001   4.155760025030E+001   3.798239974970E+001   3.604719924920E+001   3.463680137630E+001   3.191439849850E+001   2.601039943700E+001 
        2.437039943700E+001   2.374719924930E+001   1.787599937440E+001   1.456320018770E+001   4.296799812300E+000  -2.031177144100E+000  -8.863778057100E+000 
        0.000000000000E+000   0.000000000000E+000   0.000000000000E+000   0.000000000000E+000   0.000000000000E+000   0.000000000000E+000   0.000000000000E+000   0.000000000000E+000   0.000000000000E+000   0.000000000000E+000 
        0.000000000000E+000   0.000000000000E+000   0.000000000000E+000   0.000000000000E+000   0.000000000000E+000   0.000000000000E+000   0.000000000000E+000  -3.650089500410E+001  -3.326006446830E+001  -2.977604667660E+001 
       -2.013765274050E+001  -4.900225629800E+000   7.248800125100E+000   5.248000000000E+001   4.828160087580E+001   5.162719924920E+001   5.838399749770E+001   5.733439849840E+001   5.982719924920E+001   4.254160087580E+001 
        3.470239974970E+001   3.555520050050E+001   3.457119987500E+001   3.001199874880E+001   3.024160087590E+001   2.948719924930E+001   3.348880012500E+001   3.608000000000E+001   3.824479949950E+001   3.863839912420E+001 
        3.634239974970E+001   3.450560150160E+001   3.693280075080E+001   3.781839912420E+001   3.670319862370E+001   3.601439849840E+001   3.463680137630E+001   3.050400062560E+001   2.830640037540E+001   2.473119987490E+001 
        2.355039943700E+001   2.236960056300E+001   1.784320018770E+001   1.203760025020E+001  -4.376214790300E+000  -5.645889434800E+000  -9.382044620500E+000 
        0.000000000000E+000   0.000000000000E+000   0.000000000000E+000   0.000000000000E+000   0.000000000000E+000   0.000000000000E+000   0.000000000000E+000   0.000000000000E+000   0.000000000000E+000   0.000000000000E+000 
        0.000000000000E+000   0.000000000000E+000   0.000000000000E+000   0.000000000000E+000  -5.300899734480E+001  -4.248294052130E+001  -3.704913612370E+001  -3.358300765980E+001  -3.096851631160E+001  -2.550285739900E+001 
       -6.410932302500E+000   4.674000000000E+001   5.152880012500E+001   5.480879699720E+001   4.093439849840E+001   4.142640037520E+001   3.745760025030E+001   3.683439849840E+001   3.493199874870E+001   3.112719924930E+001 
        2.961839912410E+001   3.014319862360E+001   3.053680137640E+001   3.138959899900E+001   2.689599937440E+001   2.745359962460E+001   3.135680137640E+001   3.214400062560E+001   3.096319862360E+001   3.188160087590E+001 
        3.585040100110E+001   3.444000000000E+001   3.493199874870E+001   3.506319862370E+001   3.476800125130E+001   3.309520050050E+001   2.991359962460E+001   2.909359962460E+001   2.535440006250E+001   2.479679981230E+001 
        2.076239974980E+001   2.141840068820E+001   1.607200031280E+001  -4.366751260800E+000  -6.307211971300E+000  -8.359615097000E+000  -1.898872715000E+001 
        0.000000000000E+000   0.000000000000E+000   0.000000000000E+000   0.000000000000E+000   0.000000000000E+000   0.000000000000E+000   0.000000000000E+000   0.000000000000E+000   0.000000000000E+000   0.000000000000E+000 
        0.000000000000E+000   0.000000000000E+000   0.000000000000E+000   0.000000000000E+000  -4.225179626450E+001  -3.677643257150E+001  -3.323743614190E+001  -3.107077232360E+001  -2.785780960080E+001  -2.097212310790E+001 
        9.282398967800E+000   3.004479949950E+001   3.253760025020E+001   3.043839912410E+001   3.499760025030E+001   3.230800125120E+001   3.070079887390E+001   2.748640037540E+001   2.791280075070E+001   2.719119987490E+001 
        2.584640037540E+001   2.568239974980E+001   2.574799968720E+001   2.059840068820E+001   2.276320018770E+001   2.496080043790E+001   2.591200031280E+001   2.706000000000E+001   2.840479949950E+001   2.843760025020E+001 
        2.856880012510E+001   3.191439849850E+001   3.322640037520E+001   3.158640037540E+001   3.034000000000E+001   3.050400062560E+001   2.791280075070E+001   2.214000000000E+001   2.361599937440E+001   2.309119987490E+001 
        1.738400062560E+001   1.731840068820E+001  -3.568727779400E+000  -6.570451602900E+000  -8.871867980900E+000  -1.390127315520E+001   0.000000000000E+000 
        0.000000000000E+000   0.000000000000E+000   0.000000000000E+000   0.000000000000E+000   0.000000000000E+000   0.000000000000E+000   0.000000000000E+000   0.000000000000E+000   0.000000000000E+000   0.000000000000E+000 
        0.000000000000E+000   0.000000000000E+000   0.000000000000E+000  -4.027634399400E+001  -3.616899307250E+001  -3.299603187550E+001  -3.075588699340E+001  -2.735283882140E+001  -1.988676109310E+001   6.756799030300E+000 
        2.528880012510E+001   1.558000000000E+001   1.987679981230E+001   2.246799968720E+001   2.446880012510E+001   2.607599937440E+001   2.568239974980E+001   2.587919956210E+001   2.453440006250E+001   2.391119987490E+001 
        2.519039943700E+001   2.282880012510E+001   2.243520050050E+001   1.935200031280E+001   2.033599937440E+001   2.105760025020E+001   1.800719924930E+001   1.958159931180E+001   2.115599937440E+001   1.987679981230E+001 
        2.460000000000E+001   2.728959899900E+001   2.817520050050E+001   2.860160087590E+001   2.722400062560E+001   2.702719924930E+001   2.620719924930E+001   2.233679981230E+001   2.220559993750E+001   1.823679981230E+001 
        1.180800242400E+000  -3.351033754300E+000  -5.305341568000E+000  -8.537717762000E+000  -1.052767402650E+001   0.000000000000E+000   0.000000000000E+000 
        0.000000000000E+000   0.000000000000E+000   0.000000000000E+000   0.000000000000E+000   0.000000000000E+000   0.000000000000E+000   0.000000000000E+000   0.000000000000E+000   0.000000000000E+000   0.000000000000E+000 
        0.000000000000E+000   0.000000000000E+000   0.000000000000E+000  -3.563770912160E+001  -3.287706268320E+001  -3.014886039740E+001  -2.876662750240E+001  -1.879265460970E+001   8.659199562100E+000   4.454239974970E+001 
        3.571920112600E+001   1.748239974980E+001   1.984400062560E+001   1.797440006250E+001   2.273039943700E+001   2.256640037540E+001   2.404239974980E+001   2.332080043790E+001   2.227119987490E+001   2.843760025020E+001 
        2.643680137640E+001   2.223840068820E+001   1.551440006250E+001   1.918799968720E+001   1.974559993750E+001   1.341520050050E+001   1.262799968720E+001   1.354640037540E+001   1.748239974980E+001   2.030320018770E+001 
        2.345200031280E+001   2.633839912410E+001   2.676479949950E+001   2.660079887390E+001   2.322239974980E+001   2.345200031280E+001   2.187760025020E+001   1.817119987490E+001   1.781039943700E+001  -3.291131172200E+000 
       -4.249871606800E+000  -5.257352170900E+000  -6.115699739400E+000  -1.010654676440E+001   0.000000000000E+000   0.000000000000E+000   0.000000000000E+000 
        0.000000000000E+000   0.000000000000E+000   0.000000000000E+000   0.000000000000E+000   0.000000000000E+000   0.000000000000E+000   0.000000000000E+000   0.000000000000E+000   0.000000000000E+000   0.000000000000E+000 
        0.000000000000E+000   0.000000000000E+000  -3.410281166090E+001  -3.189040321350E+001  -2.863889350890E+001  -2.702787490840E+001  -2.311688117980E+001  -4.121221094100E+000   5.047920112600E+001   4.821599937450E+001 