BEGIN OPTIONS
  MEMORY_PRINT_OPTION ALL
END OPTIONS

BEGIN TIMING
  TDIS6 'green2010_v3.tdis'
END TIMING

BEGIN MODELS
  GWF6 'green2010_v3.nam' 'MODFLOW'
END MODELS

BEGIN EXCHANGES
END EXCHANGES

BEGIN SOLUTIONGROUP     1
  MXITER     1
  IMS6 'green2010_v3.ims' 'MODFLOW' 
END SOLUTIONGROUP

